<?xml version="1.0" encoding="UTF-8"?>

<!-- generated on 2023-10-31 12:04:57.808932 by randomTrips.py v1_18_0+0000-03ecfdea036
<configuration>
    <net-file value="horsens/horsens.net.xml"/>
    <route-file value="horsens/horsens.rou.xml"/>
    <length value="True"/>
    <end value="1000.0"/>
</configuration>
-->

<routes xmlns:xsi="http://www.w3.org/2001/XMLSchema-instance" xsi:noNamespaceSchemaLocation="http://sumo.dlr.de/xsd/routes_file.xsd">
    <trip id="0" depart="0.00" from="34210739#3" to="-24858405#10"/>
    <trip id="1" depart="1.00" from="-39653444#0" to="-39653409"/>
    <trip id="2" depart="2.00" from="39653418#1" to="34387714#1"/>
    <trip id="3" depart="3.00" from="88404721#9" to="-31651985#0"/>
    <trip id="4" depart="4.00" from="-88448830#1" to="-24858405#14"/>
    <trip id="5" depart="5.00" from="-39653406#0" to="105317949"/>
    <trip id="6" depart="6.00" from="-24858405#14" to="-37909056#0"/>
    <trip id="7" depart="7.00" from="34211701" to="26710902#1"/>
    <trip id="8" depart="8.00" from="-39653406#0" to="30966937#1"/>
    <trip id="9" depart="9.00" from="40991864#2" to="-122423293#0"/>
    <trip id="10" depart="10.00" from="40991862#1" to="37681508#1"/>
    <trip id="11" depart="11.00" from="-779669375#5" to="-34210739#6"/>
    <trip id="12" depart="12.00" from="88453419#0" to="-52525593#1"/>
    <trip id="13" depart="13.00" from="-31651983#0" to="-31651987#2"/>
    <trip id="14" depart="14.00" from="779669374#9" to="31651985#0"/>
    <trip id="15" depart="15.00" from="40991862#2" to="39653406#1"/>
    <trip id="16" depart="16.00" from="26715996#10" to="88453424#15"/>
    <trip id="17" depart="17.00" from="-88404781#1" to="26710902#6"/>
    <trip id="18" depart="18.00" from="52525593#1" to="31651991"/>
    <trip id="19" depart="19.00" from="861118976#1" to="30847141"/>
    <trip id="20" depart="20.00" from="39653402#0" to="-26710902#3"/>
    <trip id="21" depart="21.00" from="-39653414#0" to="-39653445"/>
    <trip id="22" depart="22.00" from="-30966936#1" to="-39653416#1"/>
    <trip id="23" depart="23.00" from="-31651985#1" to="-39653441#1"/>
    <trip id="24" depart="24.00" from="34210738#1" to="-861118976#0"/>
    <trip id="25" depart="25.00" from="-88404721#11" to="-39653401"/>
    <trip id="26" depart="26.00" from="-39653439" to="88448830#2"/>
    <trip id="27" depart="27.00" from="34210747#0" to="31651986#2"/>
    <trip id="28" depart="28.00" from="-37202434#0" to="39653406#1"/>
    <trip id="29" depart="29.00" from="-34210743#1" to="-87471939"/>
    <trip id="30" depart="30.00" from="92005137#10" to="33004133"/>
    <trip id="31" depart="31.00" from="30966936#1" to="37202435#1"/>
    <trip id="32" depart="32.00" from="779669374#2" to="39653439"/>
    <trip id="33" depart="33.00" from="-39653414#0" to="-24858405#3"/>
    <trip id="34" depart="34.00" from="-52525593#0" to="-39653434#1"/>
    <trip id="35" depart="35.00" from="-39653401" to="88448875#11"/>
    <trip id="36" depart="36.00" from="87471940#1" to="-40991862#2"/>
    <trip id="37" depart="37.00" from="34211708" to="-88404721#5"/>
    <trip id="38" depart="38.00" from="88448708#5" to="-88453375#2"/>
    <trip id="39" depart="39.00" from="-39653437" to="-39653419"/>
    <trip id="40" depart="40.00" from="30966937#1" to="-39653430"/>
    <trip id="41" depart="41.00" from="31651987#2" to="88448708#1"/>
    <trip id="42" depart="42.00" from="-88448751#0" to="-39653406#1"/>
    <trip id="43" depart="43.00" from="947874653#1" to="122423293#10"/>
    <trip id="44" depart="44.00" from="-31651983#0" to="-26715996#0"/>
    <trip id="45" depart="45.00" from="-31651987#2" to="32505097#1"/>
    <trip id="46" depart="46.00" from="39653456" to="-88448745#8"/>
    <trip id="47" depart="47.00" from="-26715996#14" to="-87471940#1"/>
    <trip id="48" depart="48.00" from="947874653#0" to="24858405#13"/>
    <trip id="49" depart="49.00" from="88453421#5" to="861118976#1"/>
    <trip id="50" depart="50.00" from="-122423293#26" to="39653401"/>
    <trip id="51" depart="51.00" from="37681508#1" to="24858405#6"/>
    <trip id="52" depart="52.00" from="-39653439" to="33004133"/>
    <trip id="53" depart="53.00" from="-31651987#5" to="-88448819#0"/>
    <trip id="54" depart="54.00" from="-88453424#0" to="88453419#2"/>
    <trip id="55" depart="55.00" from="87471940#1" to="-39653431#0"/>
    <trip id="56" depart="56.00" from="122423293#26" to="-37405044"/>
    <trip id="57" depart="57.00" from="88448708#4" to="87471940#0"/>
    <trip id="58" depart="58.00" from="-40991864#1" to="33004131#5"/>
    <trip id="59" depart="59.00" from="32505100#0" to="-34210739#6"/>
    <trip id="60" depart="60.00" from="39653435" to="24858405#9"/>
    <trip id="61" depart="61.00" from="39653443#4" to="24858405#14"/>
    <trip id="62" depart="62.00" from="-1007829414#2" to="-468071646#1"/>
    <trip id="63" depart="63.00" from="-24858405#0" to="88448819#1"/>
    <trip id="64" depart="64.00" from="87897684" to="607652771#1"/>
    <trip id="65" depart="65.00" from="-468071646#2" to="-30847140"/>
    <trip id="66" depart="66.00" from="87897684" to="88448875#7"/>
    <trip id="67" depart="67.00" from="-30966937#1" to="-913071907"/>
    <trip id="68" depart="68.00" from="-30847132" to="39653425#1"/>
    <trip id="69" depart="69.00" from="39653437" to="-33004131#3"/>
    <trip id="70" depart="70.00" from="-92004645#5" to="26710902#6"/>
    <trip id="71" depart="71.00" from="-39653437" to="87471943#1"/>
    <trip id="72" depart="72.00" from="-88448830#2" to="-39653402#0"/>
    <trip id="73" depart="73.00" from="26715996#14" to="39653406#1"/>
    <trip id="74" depart="74.00" from="-37909056#1" to="-40991862#0"/>
    <trip id="75" depart="75.00" from="92731453" to="334669517#3"/>
    <trip id="76" depart="76.00" from="-88453403#2" to="122423293#29"/>
    <trip id="77" depart="77.00" from="-32505096#3" to="-39653414#0"/>
    <trip id="78" depart="78.00" from="-779669375#2" to="30966937#1"/>
    <trip id="79" depart="79.00" from="-39653414#0" to="-39653406#1"/>
    <trip id="80" depart="80.00" from="-30847141" to="32505100#2"/>
    <trip id="81" depart="81.00" from="-39653414#0" to="88448745#12"/>
    <trip id="82" depart="82.00" from="861118976#0" to="-30966936#2"/>
    <trip id="83" depart="83.00" from="-39653416#1" to="34210747#0"/>
    <trip id="84" depart="84.00" from="-39653402#0" to="-334669502"/>
    <trip id="85" depart="85.00" from="88448819#1" to="30809462"/>
    <trip id="86" depart="86.00" from="-92004645#10" to="39653455#1"/>
    <trip id="87" depart="87.00" from="40991862#2" to="-37681509#0"/>
    <trip id="88" depart="88.00" from="-31651984#4" to="-88448753#3"/>
    <trip id="89" depart="89.00" from="-88448839" to="-88453420#2"/>
    <trip id="90" depart="90.00" from="39653417#0" to="34387709"/>
    <trip id="91" depart="91.00" from="92004645#10" to="-31651991"/>
    <trip id="92" depart="92.00" from="-88448751#3" to="-52525593#1"/>
    <trip id="93" depart="93.00" from="861118976#1" to="-39653420"/>
    <trip id="94" depart="94.00" from="-37681508#1" to="-88448851#6"/>
    <trip id="95" depart="95.00" from="-88448830#1" to="-39653441#1"/>
    <trip id="96" depart="96.00" from="-39653424#2" to="88448819#0"/>
    <trip id="97" depart="97.00" from="-88453420#12" to="861118976#1"/>
    <trip id="98" depart="98.00" from="30847142#0" to="-26715996#13"/>
    <trip id="99" depart="99.00" from="947874653#7" to="739765770#2"/>
    <trip id="100" depart="100.00" from="88453421#5" to="88448819#1"/>
    <trip id="101" depart="101.00" from="779669375#1" to="-34211708"/>
    <trip id="102" depart="102.00" from="-947874653#5" to="-39653403#0"/>
    <trip id="103" depart="103.00" from="-88448751#2" to="-30847140"/>
    <trip id="104" depart="104.00" from="-88404781#2" to="92004645#10"/>
    <trip id="105" depart="105.00" from="-39653437" to="39653444#1"/>
    <trip id="106" depart="106.00" from="-88453424#10" to="-88448751#0"/>
    <trip id="107" depart="107.00" from="88453419#0" to="92731453"/>
    <trip id="108" depart="108.00" from="30893061#0" to="39653398"/>
    <trip id="109" depart="109.00" from="-34210739#6" to="-39653455#2"/>
    <trip id="110" depart="110.00" from="88453421#4" to="30847142#0"/>
    <trip id="111" depart="111.00" from="29480659" to="39653416#1"/>
    <trip id="112" depart="112.00" from="-26710902#6" to="30893061#2"/>
    <trip id="113" depart="113.00" from="122423293#31" to="779669378"/>
    <trip id="114" depart="114.00" from="-34210739#6" to="88453421#0"/>
    <trip id="115" depart="115.00" from="-30966936#1" to="-37681508#0"/>
    <trip id="116" depart="116.00" from="31651996" to="34387709"/>
    <trip id="117" depart="117.00" from="-39653415" to="-32505100#0"/>
    <trip id="118" depart="118.00" from="88404721#2" to="-39653419"/>
    <trip id="119" depart="119.00" from="31651996" to="31651991"/>
    <trip id="120" depart="120.00" from="-88448819#3" to="30847142#1"/>
    <trip id="121" depart="121.00" from="24858405#6" to="88448830#1"/>
    <trip id="122" depart="122.00" from="-38137015#0" to="39653398"/>
    <trip id="123" depart="123.00" from="-39653416#1" to="-88404721#5"/>
    <trip id="124" depart="124.00" from="37405044" to="-39653456"/>
    <trip id="125" depart="125.00" from="-52525593#0" to="39653418#1"/>
    <trip id="126" depart="126.00" from="-30847141" to="-88448881#8"/>
    <trip id="127" depart="127.00" from="947874653#4" to="947874653#0"/>
    <trip id="128" depart="128.00" from="-30847141" to="-39653403#0"/>
    <trip id="129" depart="129.00" from="-39653437" to="88448830#0"/>
    <trip id="130" depart="130.00" from="87897684" to="88404721#0"/>
    <trip id="131" depart="131.00" from="-88404721#11" to="-34210743#1"/>
    <trip id="132" depart="132.00" from="595195016#0" to="37681509#1"/>
    <trip id="133" depart="133.00" from="32505100#3" to="92004645#16"/>
    <trip id="134" depart="134.00" from="34211707#0" to="-122423293#10"/>
    <trip id="135" depart="135.00" from="468071646#1" to="-39653456"/>
    <trip id="136" depart="136.00" from="34387714#1" to="88448851#6"/>
    <trip id="137" depart="137.00" from="-33004133" to="-32505096#2"/>
    <trip id="138" depart="138.00" from="-31651987#0" to="26710902#6"/>
    <trip id="139" depart="139.00" from="-39653441#1" to="31651985#0"/>
    <trip id="140" depart="140.00" from="39653414#0" to="-38137015#0"/>
    <trip id="141" depart="141.00" from="34210738#1" to="-39653431#0"/>
    <trip id="142" depart="142.00" from="105072017" to="88448745#1"/>
    <trip id="143" depart="143.00" from="779669374#7" to="-31651986#1"/>
    <trip id="144" depart="144.00" from="-88448839" to="-39653441#0"/>
    <trip id="145" depart="145.00" from="-111266559" to="39653437"/>
    <trip id="146" depart="146.00" from="34210739#0" to="-39653430"/>
    <trip id="147" depart="147.00" from="39653420" to="26710902#6"/>
    <trip id="148" depart="148.00" from="-88448868#3" to="-122423293#15"/>
    <trip id="149" depart="149.00" from="-30847142#0" to="88404721#11"/>
    <trip id="150" depart="150.00" from="88448700#1" to="26710902#3"/>
    <trip id="151" depart="151.00" from="595426413#0" to="30847142#1"/>
    <trip id="152" depart="152.00" from="-34210738#1" to="-33004131#1"/>
    <trip id="153" depart="153.00" from="-468071648#1" to="88448708#1"/>
    <trip id="154" depart="154.00" from="39654089#0" to="779669383#5"/>
    <trip id="155" depart="155.00" from="88404755#2" to="-39653401"/>
    <trip id="156" depart="156.00" from="-39653424#2" to="-31651992#2"/>
    <trip id="157" depart="157.00" from="39653444#0" to="88404721#11"/>
    <trip id="158" depart="158.00" from="-88448753#3" to="31651992#0"/>
    <trip id="159" depart="159.00" from="-34210739#6" to="88448819#2"/>
    <trip id="160" depart="160.00" from="861120411" to="88453424#9"/>
    <trip id="161" depart="161.00" from="40991864#5" to="88404721#11"/>
    <trip id="162" depart="162.00" from="-24858405#13" to="39653414#0"/>
    <trip id="163" depart="163.00" from="-779669374#3" to="88448819#2"/>
    <trip id="164" depart="164.00" from="40040196#2" to="87451350"/>
    <trip id="165" depart="165.00" from="40991864#5" to="-39653434#1"/>
    <trip id="166" depart="166.00" from="39653455#1" to="-31651996"/>
    <trip id="167" depart="167.00" from="87471938#2" to="779669383#2"/>
    <trip id="168" depart="168.00" from="-39653406#2" to="468071648#1"/>
    <trip id="169" depart="169.00" from="-88453424#2" to="-39654089#1"/>
    <trip id="170" depart="170.00" from="39654089#0" to="-39653414#0"/>
    <trip id="171" depart="171.00" from="-24858405#12" to="-37681509#1"/>
    <trip id="172" depart="172.00" from="-739765770#2" to="87451350"/>
    <trip id="173" depart="173.00" from="88453421#1" to="-39653441#1"/>
    <trip id="174" depart="174.00" from="34210739#6" to="-88404755#0"/>
    <trip id="175" depart="175.00" from="892250458#0" to="24858405#6"/>
    <trip id="176" depart="176.00" from="88448830#1" to="-32505096#2"/>
    <trip id="177" depart="177.00" from="88453421#5" to="-37405044"/>
    <trip id="178" depart="178.00" from="88453420#2" to="-39653434#0"/>
    <trip id="179" depart="179.00" from="-31651987#2" to="-88448819#0"/>
    <trip id="180" depart="180.00" from="39653417#0" to="-40991862#2"/>
    <trip id="181" depart="181.00" from="32505097#0" to="122423293#14"/>
    <trip id="182" depart="182.00" from="-88448708#1" to="30847141"/>
    <trip id="183" depart="183.00" from="-39653428#1" to="37909056#0"/>
    <trip id="184" depart="184.00" from="-111266559" to="88448819#0"/>
    <trip id="185" depart="185.00" from="26715996#13" to="39653401"/>
    <trip id="186" depart="186.00" from="39653420" to="34210747#1"/>
    <trip id="187" depart="187.00" from="-88404490#4" to="-30966936#2"/>
    <trip id="188" depart="188.00" from="34387714#1" to="-511023280"/>
    <trip id="189" depart="189.00" from="-511023280" to="779669375#6"/>
    <trip id="190" depart="190.00" from="39653414#0" to="-39653456"/>
    <trip id="191" depart="191.00" from="-468071648#1" to="-88448700#0"/>
    <trip id="192" depart="192.00" from="-88448751#2" to="-39653455#1"/>
    <trip id="193" depart="193.00" from="-32505100#3" to="-88448745#12"/>
    <trip id="194" depart="194.00" from="88448830#1" to="34387714#1"/>
    <trip id="195" depart="195.00" from="88448700#0" to="31651987#4"/>
    <trip id="196" depart="196.00" from="-40991864#6" to="26710902#4"/>
    <trip id="197" depart="197.00" from="-1007829414#1" to="-39653444#0"/>
    <trip id="198" depart="198.00" from="-88448875#11" to="30847142#0"/>
    <trip id="199" depart="199.00" from="34211707#1" to="-88453420#11"/>
    <trip id="200" depart="200.00" from="-88453420#11" to="-39653403#0"/>
    <trip id="201" depart="201.00" from="-92004645#12" to="88448708#3"/>
    <trip id="202" depart="202.00" from="39654089#0" to="-34387709"/>
    <trip id="203" depart="203.00" from="-30966937#1" to="122423293#24"/>
    <trip id="204" depart="204.00" from="34210738#0" to="-52525593#1"/>
    <trip id="205" depart="205.00" from="468071646#2" to="39653417#1"/>
    <trip id="206" depart="206.00" from="37405044" to="-39653414#0"/>
    <trip id="207" depart="207.00" from="-37909056#0" to="-24858405#10"/>
    <trip id="208" depart="208.00" from="-39653418#1" to="-88453421#5"/>
    <trip id="209" depart="209.00" from="779669375#3" to="-30966937#1"/>
    <trip id="210" depart="210.00" from="-88448819#1" to="32505100#0"/>
    <trip id="211" depart="211.00" from="-37681509#1" to="37681508#1"/>
    <trip id="212" depart="212.00" from="122423293#10" to="-39653418#1"/>
    <trip id="213" depart="213.00" from="34387709" to="-111266559"/>
    <trip id="214" depart="214.00" from="39653425#0" to="39653434#1"/>
    <trip id="215" depart="215.00" from="-31651986#4" to="-88448751#2"/>
    <trip id="216" depart="216.00" from="-37202435#1" to="88453420#2"/>
    <trip id="217" depart="217.00" from="24858405#15" to="-26715996#13"/>
    <trip id="218" depart="218.00" from="-39653424#2" to="779669375#7"/>
    <trip id="219" depart="219.00" from="-88453424#13" to="40991862#0"/>
    <trip id="220" depart="220.00" from="37202434#1" to="92004645#4"/>
    <trip id="221" depart="221.00" from="31651996" to="88453375#2"/>
    <trip id="222" depart="222.00" from="88404721#6" to="31651987#1"/>
    <trip id="223" depart="223.00" from="39653414#0" to="1020369338#0"/>
    <trip id="224" depart="224.00" from="52525593#1" to="26710902#3"/>
    <trip id="225" depart="225.00" from="88404755#0" to="39653415"/>
    <trip id="226" depart="226.00" from="-92004645#5" to="-39653426"/>
    <trip id="227" depart="227.00" from="-39653419" to="33004131#3"/>
    <trip id="228" depart="228.00" from="39653437" to="122423293#4"/>
    <trip id="229" depart="229.00" from="334669515#2" to="-39653438#0"/>
    <trip id="230" depart="230.00" from="-30847142#1" to="-39653443#4"/>
    <trip id="231" depart="231.00" from="-39653441#1" to="-43221791#0"/>
    <trip id="232" depart="232.00" from="26715996#4" to="-334669517#2"/>
    <trip id="233" depart="233.00" from="-39653414#1" to="37681508#0"/>
    <trip id="234" depart="234.00" from="39653403#0" to="-30893061#0"/>
    <trip id="235" depart="235.00" from="-88448811" to="25207472#6"/>
    <trip id="236" depart="236.00" from="-88448819#1" to="-38137018"/>
    <trip id="237" depart="237.00" from="-88448830#0" to="88448745#0"/>
    <trip id="238" depart="238.00" from="31651987#2" to="37681508#0"/>
    <trip id="239" depart="239.00" from="779669383#1" to="39653431#1"/>
    <trip id="240" depart="240.00" from="-88448700#1" to="-111266559"/>
    <trip id="241" depart="241.00" from="-87451350" to="39653418#1"/>
    <trip id="242" depart="242.00" from="779669376#0" to="88453419#1"/>
    <trip id="243" depart="243.00" from="-88448819#3" to="39653416#1"/>
    <trip id="244" depart="244.00" from="30847140" to="31651985#0"/>
    <trip id="245" depart="245.00" from="-39653406#0" to="-39653406#1"/>
    <trip id="246" depart="246.00" from="-88448881#8" to="-24858405#14"/>
    <trip id="247" depart="247.00" from="-779669374#7" to="34387714#1"/>
    <trip id="248" depart="248.00" from="-88448753#1" to="-34211707#0"/>
    <trip id="249" depart="249.00" from="-88523993" to="-33004131#1"/>
    <trip id="250" depart="250.00" from="334669503" to="-24858405#13"/>
    <trip id="251" depart="251.00" from="-88448745#8" to="26715996#10"/>
    <trip id="252" depart="252.00" from="-24858405#14" to="334669503"/>
    <trip id="253" depart="253.00" from="-33004133" to="-88453419#0"/>
    <trip id="254" depart="254.00" from="-26710902#6" to="-87471939"/>
    <trip id="255" depart="255.00" from="-39653401" to="-468071648#1"/>
    <trip id="256" depart="256.00" from="39653435" to="-87471939"/>
    <trip id="257" depart="257.00" from="39653426" to="607652771#1"/>
    <trip id="258" depart="258.00" from="-39653425#1" to="-31651983#0"/>
    <trip id="259" depart="259.00" from="-232998885#1" to="24858405#9"/>
    <trip id="260" depart="260.00" from="947874653#9" to="-779669374#4"/>
    <trip id="261" depart="261.00" from="34211701" to="39653443#2"/>
    <trip id="262" depart="262.00" from="34211706" to="39653418#1"/>
    <trip id="263" depart="263.00" from="88448875#3" to="-37909056#0"/>
    <trip id="264" depart="264.00" from="-24858405#0" to="-34210739#6"/>
    <trip id="265" depart="265.00" from="-32505100#2" to="34210747#0"/>
    <trip id="266" depart="266.00" from="30966937#2" to="-39653406#0"/>
    <trip id="267" depart="267.00" from="38137015#1" to="39653433"/>
    <trip id="268" depart="268.00" from="-34387709" to="31651985#2"/>
    <trip id="269" depart="269.00" from="39653424#2" to="-31651996"/>
    <trip id="270" depart="270.00" from="468071646#2" to="88453421#5"/>
    <trip id="271" depart="271.00" from="-31651987#1" to="-24858405#11"/>
    <trip id="272" depart="272.00" from="-511023280" to="34387714#1"/>
    <trip id="273" depart="273.00" from="88453419#2" to="-88404721#7"/>
    <trip id="274" depart="274.00" from="39653409" to="-30966937#2"/>
    <trip id="275" depart="275.00" from="37681511" to="32505097#0"/>
    <trip id="276" depart="276.00" from="-31651985#1" to="39653437"/>
    <trip id="277" depart="277.00" from="779669375#3" to="31651984#3"/>
    <trip id="278" depart="278.00" from="-32505096#3" to="92004645#10"/>
    <trip id="279" depart="279.00" from="39653445" to="-779669374#1"/>
    <trip id="280" depart="280.00" from="-88448868#6" to="-87451355#0"/>
    <trip id="281" depart="281.00" from="122423293#4" to="-607652771#0"/>
    <trip id="282" depart="282.00" from="779669375#3" to="52525591#1"/>
    <trip id="283" depart="283.00" from="-31651986#4" to="88453421#0"/>
    <trip id="284" depart="284.00" from="34210738#1" to="52525593#1"/>
    <trip id="285" depart="285.00" from="39653403#0" to="-88448819#0"/>
    <trip id="286" depart="286.00" from="39653417#1" to="88453421#5"/>
    <trip id="287" depart="287.00" from="-39653441#1" to="40991864#6"/>
    <trip id="288" depart="288.00" from="26715996#13" to="-88523891#1"/>
    <trip id="289" depart="289.00" from="-88448881#8" to="39653406#2"/>
    <trip id="290" depart="290.00" from="-39653439" to="779669378"/>
    <trip id="291" depart="291.00" from="52525593#1" to="-31651985#0"/>
    <trip id="292" depart="292.00" from="88404490#0" to="-39653418#1"/>
    <trip id="293" depart="293.00" from="-88523891#1" to="31651986#3"/>
    <trip id="294" depart="294.00" from="-88404781#2" to="-24858405#14"/>
    <trip id="295" depart="295.00" from="779669375#4" to="-37405045#1"/>
    <trip id="296" depart="296.00" from="-39653401" to="40040195#4"/>
    <trip id="297" depart="297.00" from="-779669375#6" to="88404721#10"/>
    <trip id="298" depart="298.00" from="38137018" to="-39653438#1"/>
    <trip id="299" depart="299.00" from="-122423293#23" to="88448881#3"/>
    <trip id="300" depart="300.00" from="-30966937#1" to="39653401"/>
    <trip id="301" depart="301.00" from="105072017" to="39653424#2"/>
    <trip id="302" depart="302.00" from="37681511" to="334669515#0"/>
    <trip id="303" depart="303.00" from="111266559" to="39654089#0"/>
    <trip id="304" depart="304.00" from="-31651983#1" to="-39653409"/>
    <trip id="305" depart="305.00" from="37681512#0" to="-40040195#2"/>
    <trip id="306" depart="306.00" from="31651986#3" to="-88453421#5"/>
    <trip id="307" depart="307.00" from="26710902#2" to="-88448751#2"/>
    <trip id="308" depart="308.00" from="39653424#2" to="-511023280"/>
    <trip id="309" depart="309.00" from="39653401" to="-39653436"/>
    <trip id="310" depart="310.00" from="-39653424#2" to="-32505100#0"/>
    <trip id="311" depart="311.00" from="-37681509#0" to="-32505100#0"/>
    <trip id="312" depart="312.00" from="26715996#1" to="39653428#1"/>
    <trip id="313" depart="313.00" from="-37405045#1" to="-39653403#2"/>
    <trip id="314" depart="314.00" from="-947874653#1" to="39653403#1"/>
    <trip id="315" depart="315.00" from="88453424#4" to="24858405#0"/>
    <trip id="316" depart="316.00" from="-39653456" to="-31651992#0"/>
    <trip id="317" depart="317.00" from="-37681509#1" to="-39653414#0"/>
    <trip id="318" depart="318.00" from="-37405044" to="-122423293#28"/>
    <trip id="319" depart="319.00" from="26710902#5" to="-39653437"/>
    <trip id="320" depart="320.00" from="88453424#13" to="26710902#6"/>
    <trip id="321" depart="321.00" from="37909056#1" to="-33004131#1"/>
    <trip id="322" depart="322.00" from="87451367" to="-92004645#16"/>
    <trip id="323" depart="323.00" from="87471939" to="30847132"/>
    <trip id="324" depart="324.00" from="-913071908" to="-88448819#1"/>
    <trip id="325" depart="325.00" from="-37405045#1" to="-26715996#14"/>
    <trip id="326" depart="326.00" from="88448830#2" to="-88453424#12"/>
    <trip id="327" depart="327.00" from="468071648#2" to="-88404755#0"/>
    <trip id="328" depart="328.00" from="-30847142#0" to="32505100#0"/>
    <trip id="329" depart="329.00" from="-26710902#6" to="-34210739#1"/>
    <trip id="330" depart="330.00" from="30966937#1" to="-39654089#1"/>
    <trip id="331" depart="331.00" from="92005137#4" to="-32505097#1"/>
    <trip id="332" depart="332.00" from="39653436" to="31651985#1"/>
    <trip id="333" depart="333.00" from="39653455#2" to="-39653414#0"/>
    <trip id="334" depart="334.00" from="24858405#6" to="-88448868#5"/>
    <trip id="335" depart="335.00" from="-88453420#12" to="779669383#5"/>
    <trip id="336" depart="336.00" from="92005137#10" to="-397336437#0"/>
    <trip id="337" depart="337.00" from="334669501" to="31651986#3"/>
    <trip id="338" depart="338.00" from="39653419" to="88448881#1"/>
    <trip id="339" depart="339.00" from="-39653398" to="-39653401"/>
    <trip id="340" depart="340.00" from="34387714#0" to="-34210743#0"/>
    <trip id="341" depart="341.00" from="-37202434#1" to="-30966937#1"/>
    <trip id="342" depart="342.00" from="-111266559" to="-88448868#5"/>
    <trip id="343" depart="343.00" from="31651996" to="-39653446"/>
    <trip id="344" depart="344.00" from="-39653414#1" to="37909056#0"/>
    <trip id="345" depart="345.00" from="39653401" to="-88448875#3"/>
    <trip id="346" depart="346.00" from="37681509#1" to="88448819#0"/>
    <trip id="347" depart="347.00" from="39653455#1" to="32505096#2"/>
    <trip id="348" depart="348.00" from="34387714#0" to="88448830#0"/>
    <trip id="349" depart="349.00" from="-88448851#5" to="26710902#0"/>
    <trip id="350" depart="350.00" from="34210747#0" to="88448746"/>
    <trip id="351" depart="351.00" from="52525593#0" to="-30966937#0"/>
    <trip id="352" depart="352.00" from="-34210747#1" to="-40040195#4"/>
    <trip id="353" depart="353.00" from="39653424#2" to="26715996#7"/>
    <trip id="354" depart="354.00" from="-40040195#1" to="-32505100#3"/>
    <trip id="355" depart="355.00" from="37681510" to="37681509#0"/>
    <trip id="356" depart="356.00" from="88448851#4" to="-947874653#0"/>
    <trip id="357" depart="357.00" from="122423293#0" to="-31651983#0"/>
    <trip id="358" depart="358.00" from="-26710902#0" to="-88448819#0"/>
    <trip id="359" depart="359.00" from="-595195016#1" to="-39653420"/>
    <trip id="360" depart="360.00" from="-31651983#0" to="88453421#1"/>
    <trip id="361" depart="361.00" from="607652771#2" to="30847132"/>
    <trip id="362" depart="362.00" from="88448875#5" to="947874653#7"/>
    <trip id="363" depart="363.00" from="37405044" to="-39653436"/>
    <trip id="364" depart="364.00" from="-26710902#0" to="39653424#2"/>
    <trip id="365" depart="365.00" from="-92004645#10" to="34210737#1"/>
    <trip id="366" depart="366.00" from="88448745#2" to="-37405045#1"/>
    <trip id="367" depart="367.00" from="31651987#2" to="32505100#5"/>
    <trip id="368" depart="368.00" from="111266559" to="-31651986#0"/>
    <trip id="369" depart="369.00" from="-861118976#1" to="-52525593#0"/>
    <trip id="370" depart="370.00" from="37202435#1" to="779669383#0"/>
    <trip id="371" depart="371.00" from="-779669374#1" to="37681508#0"/>
    <trip id="372" depart="372.00" from="-40040195#1" to="88448875#3"/>
    <trip id="373" depart="373.00" from="43221791#1" to="26710902#6"/>
    <trip id="374" depart="374.00" from="-88453424#10" to="-40991862#2"/>
    <trip id="375" depart="375.00" from="-595426413#0" to="88453424#14"/>
    <trip id="376" depart="376.00" from="-88448753#1" to="122423293#22"/>
    <trip id="377" depart="377.00" from="92004645#7" to="34210739#3"/>
    <trip id="378" depart="378.00" from="30809462" to="-88448708#1"/>
    <trip id="379" depart="379.00" from="-37681508#0" to="-779669383#0"/>
    <trip id="380" depart="380.00" from="39653431#0" to="32505096#3"/>
    <trip id="381" depart="381.00" from="39653434#1" to="-37909056#1"/>
    <trip id="382" depart="382.00" from="30847142#0" to="88448819#1"/>
    <trip id="383" depart="383.00" from="-88453403#2" to="37681508#1"/>
    <trip id="384" depart="384.00" from="-32505096#3" to="88453424#15"/>
    <trip id="385" depart="385.00" from="32505100#0" to="-39653417#1"/>
    <trip id="386" depart="386.00" from="-34210739#7" to="26710902#6"/>
    <trip id="387" depart="387.00" from="30847142#1" to="-31651986#3"/>
    <trip id="388" depart="388.00" from="92005137#13" to="88448751#1"/>
    <trip id="389" depart="389.00" from="-88453424#2" to="-32505097#0"/>
    <trip id="390" depart="390.00" from="52525593#1" to="-92005137#4"/>
    <trip id="391" depart="391.00" from="39653414#0" to="111266560#1"/>
    <trip id="392" depart="392.00" from="-39653443#2" to="700785352#2"/>
    <trip id="393" depart="393.00" from="88523891#1" to="-39653418#1"/>
    <trip id="394" depart="394.00" from="30847142#1" to="-87897684"/>
    <trip id="395" depart="395.00" from="88448751#3" to="111266559"/>
    <trip id="396" depart="396.00" from="87897684" to="87451350"/>
    <trip id="397" depart="397.00" from="-39653444#1" to="39653456"/>
    <trip id="398" depart="398.00" from="-88448819#1" to="88448830#1"/>
    <trip id="399" depart="399.00" from="232998885#0" to="511023280"/>
    <trip id="400" depart="400.00" from="-39653456" to="-39653455#2"/>
    <trip id="401" depart="401.00" from="31651991" to="947874653#5"/>
    <trip id="402" depart="402.00" from="105072017" to="-34210739#1"/>
    <trip id="403" depart="403.00" from="26715996#13" to="-700785352#3"/>
    <trip id="404" depart="404.00" from="30847142#1" to="25207472#6"/>
    <trip id="405" depart="405.00" from="-88453424#12" to="-43221791#3"/>
    <trip id="406" depart="406.00" from="-37681508#1" to="37681508#1"/>
    <trip id="407" depart="407.00" from="31651983#1" to="-39653416#1"/>
    <trip id="408" depart="408.00" from="39653442" to="-26710902#2"/>
    <trip id="409" depart="409.00" from="39653420" to="37681512#0"/>
    <trip id="410" depart="410.00" from="40991864#6" to="-87897684"/>
    <trip id="411" depart="411.00" from="34387714#1" to="511023280"/>
    <trip id="412" depart="412.00" from="892250458#0" to="-92005137#11"/>
    <trip id="413" depart="413.00" from="-25207472#5" to="-947874653#2"/>
    <trip id="414" depart="414.00" from="31651992#1" to="87471938#2"/>