<?xml version="1.0" encoding="UTF-8"?>

<!-- generated on 2023-11-01 20:49:08.597539 by randomTrips.py v1_18_0+0000-03ecfdea036
<configuration>
    <net-file value="horsens/horsens.net.xml"/>
    <route-file value="horsens/horsens.rou.xml"/>
    <lanes value="True"/>
    <random-routing-factor value="2.0"/>
    <end value="20000.0"/>
    <insertion-density value="100.0"/>
</configuration>
-->

<routes xmlns:xsi="http://www.w3.org/2001/XMLSchema-instance" xsi:noNamespaceSchemaLocation="http://sumo.dlr.de/xsd/routes_file.xsd">
    <trip id="0" depart="0.00" from="334669510#1" to="-122423293#26"/>
    <trip id="1" depart="0.45" from="-739765770#0" to="-39653443#1"/>
    <trip id="2" depart="0.89" from="39653445" to="34210743#1"/>
    <trip id="3" depart="1.34" from="88448819#2" to="-30966937#2"/>
    <trip id="4" depart="1.78" from="-88453420#14" to="-122423293#31"/>
    <trip id="5" depart="2.23" from="-39653443#2" to="1007829414#1"/>
    <trip id="6" depart="2.67" from="-122423293#29" to="-39653419"/>
    <trip id="7" depart="3.12" from="334669515#4" to="232998885#1"/>
    <trip id="8" depart="3.57" from="-39653443#4" to="30893061#1"/>
    <trip id="9" depart="4.01" from="779669375#0" to="-111266556#1"/>
    <trip id="10" depart="4.46" from="779669374#6" to="38137015#1"/>
    <trip id="11" depart="4.90" from="-88404781#1" to="-34210740#0"/>
    <trip id="12" depart="5.35" from="88453424#6" to="-87471943#0"/>
    <trip id="13" depart="5.80" from="-31651984#1" to="-31651986#0"/>
    <trip id="14" depart="6.24" from="88404490#2" to="31651985#1"/>
    <trip id="15" depart="6.69" from="779669374#7" to="39653434#1"/>
    <trip id="16" depart="7.13" from="24858405#0" to="92004645#17"/>
    <trip id="17" depart="7.58" from="-88448851#2" to="24858405#2"/>
    <trip id="18" depart="8.02" from="87451355#0" to="32505096#1"/>
    <trip id="19" depart="8.47" from="88404781#1" to="26715996#14"/>
    <trip id="20" depart="8.92" from="39653417#0" to="-24858405#14"/>
    <trip id="21" depart="9.36" from="-397336437#0" to="-779669373#4"/>
    <trip id="22" depart="9.81" from="-30847142#0" to="-39654089#0"/>
    <trip id="23" depart="10.25" from="-31651986#4" to="-607652771#2"/>
    <trip id="24" depart="10.70" from="334669509#1" to="-88448745#13"/>
    <trip id="25" depart="11.15" from="-88448819#0" to="-39653430"/>
    <trip id="26" depart="11.59" from="-595195016#2" to="88453420#14"/>
    <trip id="27" depart="12.04" from="334669515#2" to="31651986#4"/>
    <trip id="28" depart="12.48" from="-37681508#1" to="39653433"/>
    <trip id="29" depart="12.93" from="-37202434#0" to="-88448753#5"/>
    <trip id="30" depart="13.37" from="92005137#5" to="334669506#1"/>
    <trip id="31" depart="13.82" from="26710902#0" to="37202435#1"/>
    <trip id="32" depart="14.27" from="87471940#0" to="468071648#1"/>
    <trip id="33" depart="14.71" from="-40040195#1" to="-122423293#36"/>
    <trip id="34" depart="15.16" from="-87451355#2" to="-52525591#0"/>
    <trip id="35" depart="15.60" from="-39653434#1" to="88453421#0"/>
    <trip id="36" depart="16.05" from="88448745#5" to="-779669383#1"/>
    <trip id="37" depart="16.50" from="34210737#1" to="-88448868#4"/>
    <trip id="38" depart="16.94" from="88448875#5" to="-88453424#5"/>
    <trip id="39" depart="17.39" from="-595195016#0" to="-40983752#5"/>
    <trip id="40" depart="17.83" from="26710902#5" to="-468071646#2"/>
    <trip id="41" depart="18.28" from="30966937#2" to="88448851#4"/>
    <trip id="42" depart="18.72" from="-88448881#1" to="-39653441#1"/>
    <trip id="43" depart="19.17" from="947874653#7" to="105317957"/>
    <trip id="44" depart="19.62" from="-31651983#1" to="-24858405#2"/>
    <trip id="45" depart="20.06" from="-31651992#2" to="32505100#6"/>
    <trip id="46" depart="20.51" from="779669372" to="-88453419#1"/>
    <trip id="47" depart="20.95" from="-26710902#4" to="-88448819#0"/>
    <trip id="48" depart="21.40" from="947874653#4" to="122423293#25"/>
    <trip id="49" depart="21.84" from="92004645#16" to="88448700#0"/>
    <trip id="50" depart="22.29" from="-122423293#10" to="39653424#3"/>
    <trip id="51" depart="22.74" from="37681508#0" to="122423293#35"/>
    <trip id="52" depart="23.18" from="-595195016#2" to="334669506#1"/>
    <trip id="53" depart="23.63" from="-32505096#2" to="-88453420#2"/>
    <trip id="54" depart="24.07" from="-88523891#1" to="88453424#2"/>
    <trip id="55" depart="24.52" from="88448745#4" to="-468071646#2"/>
    <trip id="56" depart="24.97" from="111266556#0" to="-37909056#0"/>
    <trip id="57" depart="25.41" from="88448875#3" to="88448745#12"/>
    <trip id="58" depart="25.86" from="-779669375#4" to="334669506#0"/>
    <trip id="59" depart="26.30" from="32505097#0" to="-34210739#4"/>
    <trip id="60" depart="26.75" from="40991864#3" to="122423293#38"/>
    <trip id="61" depart="27.19" from="52525593#0" to="122423293#27"/>
    <trip id="62" depart="27.64" from="-1007829414#0" to="-87451367"/>
    <trip id="63" depart="28.09" from="-122423293#21" to="88453419#0"/>
    <trip id="64" depart="28.53" from="88448745#8" to="87451350"/>
    <trip id="65" depart="28.98" from="-779669383#0" to="-25207472#3"/>
    <trip id="66" depart="29.42" from="88448745#7" to="88453421#5"/>
    <trip id="67" depart="29.87" from="-30966936#2" to="-92005137#11"/>
    <trip id="68" depart="30.32" from="-26715996#11" to="40991862#2"/>
    <trip id="69" depart="30.76" from="43221791#0" to="-334669506#0"/>
    <trip id="70" depart="31.21" from="-92005137#11" to="24858405#13"/>
    <trip id="71" depart="31.65" from="-595195016#0" to="88448745#2"/>
    <trip id="72" depart="32.10" from="-88453420#14" to="-39653431#2"/>
    <trip id="73" depart="32.54" from="24858405#11" to="39653434#1"/>
    <trip id="74" depart="32.99" from="-39653424#2" to="-779669376#2"/>
    <trip id="75" depart="33.44" from="947874653#2" to="334669510#0"/>
    <trip id="76" depart="33.88" from="-88453421#4" to="122423293#10"/>
    <trip id="77" depart="34.33" from="-33004131#1" to="-39653443#3"/>
    <trip id="78" depart="34.77" from="-88404755#2" to="30847142#0"/>
    <trip id="79" depart="35.22" from="-40040195#2" to="-39653441#2"/>
    <trip id="80" depart="35.66" from="-26715996#13" to="33004131#4"/>
    <trip id="81" depart="36.11" from="-397336437#1" to="88448868#6"/>
    <trip id="82" depart="36.56" from="88404755#3" to="-26715996#13"/>
    <trip id="83" depart="37.00" from="-40983752#4" to="34210739#1"/>
    <trip id="84" depart="37.45" from="-39653441#0" to="-334669509#0"/>
    <trip id="85" depart="37.89" from="88453420#11" to="26710902#5"/>
    <trip id="86" depart="38.34" from="-92004645#7" to="595426413#0"/>
    <trip id="87" depart="38.79" from="779669374#8" to="-39653406#1"/>
    <trip id="88" depart="39.23" from="-31651985#2" to="-88453420#12"/>
    <trip id="89" depart="39.68" from="-88453420#2" to="-913071907"/>
    <trip id="90" depart="40.12" from="39653441#1" to="34210740#0"/>
    <trip id="91" depart="40.57" from="92005137#14" to="-31651986#2"/>
    <trip id="92" depart="41.01" from="-88448881#7" to="-88404490#2"/>
    <trip id="93" depart="41.46" from="88404781#1" to="-40991862#1"/>
    <trip id="94" depart="41.91" from="-39653406#2" to="-88453421#2"/>
    <trip id="95" depart="42.35" from="-88453420#14" to="-700785352#0"/>
    <trip id="96" depart="42.80" from="-43221791#1" to="88453375#0"/>
    <trip id="97" depart="43.24" from="-88453424#12" to="88448700#0"/>
    <trip id="98" depart="43.69" from="24858406" to="-24858405#6"/>
    <trip id="99" depart="44.14" from="947874653#9" to="87471935#1"/>
    <trip id="100" depart="44.58" from="92004645#14" to="88453403#1"/>
    <trip id="101" depart="45.03" from="88404490#3" to="-37202434#0"/>
    <trip id="102" depart="45.47" from="-92005137#8" to="-39653434#1"/>
    <trip id="103" depart="45.92" from="-88448881#3" to="-25207472#4"/>
    <trip id="104" depart="46.36" from="-88448851#2" to="92005137#16"/>
    <trip id="105" depart="46.81" from="-595195016#0" to="595195016#2"/>
    <trip id="106" depart="47.26" from="-88523891#2" to="-88453419#2"/>
    <trip id="107" depart="47.70" from="88453424#6" to="947874653#2"/>
    <trip id="108" depart="48.15" from="25207472#5" to="39653424#1"/>
    <trip id="109" depart="48.59" from="-34210739#6" to="-779669374#4"/>
    <trip id="110" depart="49.04" from="92004645#12" to="26715996#5"/>
    <trip id="111" depart="49.49" from="24858405#15" to="40040195#1"/>
    <trip id="112" depart="49.93" from="-25207472#3" to="29480659"/>
    <trip id="113" depart="50.38" from="111266557" to="88404721#6"/>
    <trip id="114" depart="50.82" from="-34210740#1" to="88523891#0"/>
    <trip id="115" depart="51.27" from="-30847142#0" to="-39653402#1"/>
    <trip id="116" depart="51.71" from="31651986#1" to="34210743#0"/>
    <trip id="117" depart="52.16" from="-40983752#1" to="-33004131#2"/>
    <trip id="118" depart="52.61" from="88448819#0" to="-40983752#5"/>
    <trip id="119" depart="53.05" from="31651986#0" to="32505096#2"/>
    <trip id="120" depart="53.50" from="-88453420#11" to="29461967#1"/>
    <trip id="121" depart="53.94" from="122423293#28" to="88453420#11"/>
    <trip id="122" depart="54.39" from="-39653427#1" to="39653418#1"/>
    <trip id="123" depart="54.83" from="-40983752#5" to="-88448868#4"/>
    <trip id="124" depart="55.28" from="34387709" to="-779669374#8"/>
    <trip id="125" depart="55.73" from="-87471935#0" to="40040195#5"/>
    <trip id="126" depart="56.17" from="-26715996#4" to="-88453424#4"/>
    <trip id="127" depart="56.62" from="947874653#8" to="947874653#4"/>
    <trip id="128" depart="57.06" from="-26715996#5" to="-39653434#0"/>
    <trip id="129" depart="57.51" from="-595195016#0" to="88453420#1"/>
    <trip id="130" depart="57.96" from="88448751#0" to="88448751#0"/>
    <trip id="131" depart="58.40" from="-88448819#0" to="-34210747#0"/>
    <trip id="132" depart="58.85" from="87451395" to="39653402#0"/>
    <trip id="133" depart="59.29" from="32505100#0" to="92005137#3"/>
    <trip id="134" depart="59.74" from="34210737#0" to="-111266559"/>
    <trip id="135" depart="60.18" from="779669376#0" to="-779669374#7"/>
    <trip id="136" depart="60.63" from="34210740#0" to="88453420#5"/>
    <trip id="137" depart="61.08" from="-334669509#0" to="-32505100#2"/>
    <trip id="138" depart="61.52" from="-31651991" to="24858405#3"/>
    <trip id="139" depart="61.97" from="-700785352#1" to="31651985#2"/>
    <trip id="140" depart="62.41" from="39653428#1" to="-39653424#3"/>
    <trip id="141" depart="62.86" from="334669509#0" to="-468071648#0"/>
    <trip id="142" depart="63.31" from="-947874653#1" to="88448868#6"/>
    <trip id="143" depart="63.75" from="87897684" to="-31651984#1"/>
    <trip id="144" depart="64.20" from="-88453420#2" to="-607652771#1"/>
    <trip id="145" depart="64.64" from="-105317957" to="43221791#3"/>
    <trip id="146" depart="65.09" from="334669510#0" to="-468071646#1"/>
    <trip id="147" depart="65.53" from="39653456" to="24858405#15"/>
    <trip id="148" depart="65.98" from="-88453420#5" to="-111266560#1"/>
    <trip id="149" depart="66.43" from="-26715996#8" to="88448753#1"/>
    <trip id="150" depart="66.87" from="88448868#4" to="24858405#0"/>
    <trip id="151" depart="67.32" from="87471935#0" to="29461967#0"/>
    <trip id="152" depart="67.76" from="-334669517#3" to="-334669503"/>
    <trip id="153" depart="68.21" from="-779669383#1" to="88448851#5"/>
    <trip id="154" depart="68.65" from="779669373#3" to="88448700#0"/>
    <trip id="155" depart="69.10" from="88448851#4" to="-39653431#0"/>
    <trip id="156" depart="69.55" from="-40991864#6" to="-31651987#4"/>
    <trip id="157" depart="69.99" from="595195016#0" to="88448753#2"/>
    <trip id="158" depart="70.44" from="-88453375#2" to="32505097#0"/>
    <trip id="159" depart="70.88" from="-34210739#6" to="88453419#1"/>
    <trip id="160" depart="71.33" from="88448700#1" to="92004645#5"/>
    <trip id="161" depart="71.78" from="779669375#1" to="88448751#3"/>
    <trip id="162" depart="72.22" from="-122423293#27" to="39653443#0"/>
    <trip id="163" depart="72.67" from="-88404721#2" to="88453419#2"/>
    <trip id="164" depart="73.11" from="779669374#12" to="88448708#2"/>
    <trip id="165" depart="73.56" from="779669375#1" to="-511023280"/>
    <trip id="166" depart="74.00" from="700785352#1" to="-32505096#0"/>
    <trip id="167" depart="74.45" from="88448745#10" to="88404781#0"/>
    <trip id="168" depart="74.90" from="-39653444#1" to="779669375#5"/>
    <trip id="169" depart="75.34" from="-92004645#0" to="-779669375#4"/>
    <trip id="170" depart="75.79" from="779669373#3" to="-39653445"/>
    <trip id="171" depart="76.23" from="-122423293#26" to="-39653415"/>
    <trip id="172" depart="76.68" from="-88404490#4" to="88448708#2"/>
    <trip id="173" depart="77.13" from="92004645#10" to="-700785352#1"/>
    <trip id="174" depart="77.57" from="334669513#1" to="-88448875#10"/>
    <trip id="175" depart="78.02" from="92005137#11" to="122423293#32"/>
    <trip id="176" depart="78.46" from="88453420#4" to="-32505100#2"/>
    <trip id="177" depart="78.91" from="92004645#15" to="-37909056#0"/>
    <trip id="178" depart="79.35" from="892250458#0" to="-468071648#2"/>
    <trip id="179" depart="79.80" from="-31651992#0" to="-88453420#2"/>
    <trip id="180" depart="80.25" from="39653441#1" to="-779669382#1"/>
    <trip id="181" depart="80.69" from="32505096#0" to="111266557"/>
    <trip id="182" depart="81.14" from="-88448868#5" to="26715996#13"/>
    <trip id="183" depart="81.58" from="-468071646#1" to="39653406#1"/>
    <trip id="184" depart="82.03" from="-1007829414#1" to="88453403#0"/>
    <trip id="185" depart="82.48" from="24858405#10" to="39653424#2"/>
    <trip id="186" depart="82.92" from="39654089#0" to="34210739#3"/>
    <trip id="187" depart="83.37" from="-88448753#0" to="-26715996#12"/>
    <trip id="188" depart="83.81" from="34210743#0" to="-87471938#1"/>
    <trip id="189" depart="84.26" from="-87451355#0" to="88404721#0"/>
    <trip id="190" depart="84.70" from="39653431#0" to="-779669374#8"/>
    <trip id="191" depart="85.15" from="-779669383#2" to="-88448875#9"/>
    <trip id="192" depart="85.60" from="-88448881#4" to="-779669374#3"/>
    <trip id="193" depart="86.04" from="-334669501" to="-88453403#3"/>
    <trip id="194" depart="86.49" from="88453420#6" to="34210747#0"/>
    <trip id="195" depart="86.93" from="88448868#1" to="31651992#0"/>
    <trip id="196" depart="87.38" from="-779669375#6" to="24858405#11"/>
    <trip id="197" depart="87.82" from="-1007829414#0" to="-779669373#2"/>
    <trip id="198" depart="88.27" from="-88453420#6" to="26715996#7"/>
    <trip id="199" depart="88.72" from="34210737#0" to="-892250458#0"/>
    <trip id="200" depart="89.16" from="-88453424#10" to="-39653434#1"/>
    <trip id="201" depart="89.61" from="-92004645#9" to="88448868#0"/>
    <trip id="202" depart="90.05" from="779669373#3" to="-37405044"/>
    <trip id="203" depart="90.50" from="-30966936#1" to="122423292"/>
    <trip id="204" depart="90.95" from="334669507#1" to="-87471940#1"/>
    <trip id="205" depart="91.39" from="779669376#1" to="40040195#4"/>
    <trip id="206" depart="91.84" from="34387714#0" to="-39653443#3"/>
    <trip id="207" depart="92.28" from="-39653424#0" to="-122423293#26"/>
    <trip id="208" depart="92.73" from="-40991864#1" to="-92004645#16"/>
    <trip id="209" depart="93.17" from="88404490#4" to="-26715996#5"/>
    <trip id="210" depart="93.62" from="-88453420#0" to="33004131#2"/>
    <trip id="211" depart="94.07" from="-39653416#0" to="37909056#1"/>
    <trip id="212" depart="94.51" from="1007829414#0" to="-40983752#2"/>
    <trip id="213" depart="94.96" from="34210738#0" to="-111266556#0"/>
    <trip id="214" depart="95.40" from="40040196#2" to="43221791#2"/>
    <trip id="215" depart="95.85" from="-31651988" to="-88453420#0"/>
    <trip id="216" depart="96.30" from="-37681512#2" to="88453424#7"/>
    <trip id="217" depart="96.74" from="122423293#23" to="-24858405#5"/>
    <trip id="218" depart="97.19" from="-40991864#6" to="88404721#0"/>
    <trip id="219" depart="97.63" from="-913071907" to="779669374#0"/>
    <trip id="220" depart="98.08" from="34211701" to="92005137#4"/>
    <trip id="221" depart="98.52" from="31651986#1" to="88453424#12"/>
    <trip id="222" depart="98.97" from="88448819#1" to="31651987#5"/>
    <trip id="223" depart="99.42" from="39653431#0" to="1007829414#0"/>
    <trip id="224" depart="99.86" from="87451355#1" to="24858405#11"/>
    <trip id="225" depart="100.31" from="88448851#1" to="39653456"/>
    <trip id="226" depart="100.75" from="-92005137#10" to="-43221791#3"/>
    <trip id="227" depart="101.20" from="-40991864#4" to="334669503"/>
    <trip id="228" depart="101.64" from="40991864#6" to="122423293#16"/>
    <trip id="229" depart="102.09" from="334669506#0" to="-595426413#0"/>
    <trip id="230" depart="102.54" from="-30809462" to="-779669373#0"/>
    <trip id="231" depart="102.98" from="-700785352#0" to="-861118976#1"/>
    <trip id="232" depart="103.43" from="24858405#12" to="-334669514"/>
    <trip id="233" depart="103.87" from="-40040195#3" to="37681512#1"/>
    <trip id="234" depart="104.32" from="39653418#0" to="-26710902#4"/>
    <trip id="235" depart="104.77" from="-88453403#0" to="122423293#8"/>
    <trip id="236" depart="105.21" from="-88453420#1" to="-39653427#1"/>
    <trip id="237" depart="105.66" from="-88453420#12" to="88448868#6"/>
    <trip id="238" depart="106.10" from="30966937#1" to="37909056#0"/>
    <trip id="239" depart="106.55" from="88404721#8" to="40991864#3"/>
    <trip id="240" depart="106.99" from="-88448851#5" to="-111266556#0"/>
    <trip id="241" depart="107.44" from="-88448745#12" to="40040196#2"/>
    <trip id="242" depart="107.89" from="88404721#5" to="88453424#2"/>
    <trip id="243" depart="108.33" from="-88453420#11" to="397336437#1"/>
    <trip id="244" depart="108.78" from="24858405#5" to="31651985#1"/>
    <trip id="245" depart="109.22" from="-39653443#4" to="-39653441#1"/>
    <trip id="246" depart="109.67" from="-88453421#0" to="-122423293#30"/>
    <trip id="247" depart="110.12" from="-88404721#8" to="34211707#1"/>
    <trip id="248" depart="110.56" from="-88453375#0" to="-34844241"/>
    <trip id="249" depart="111.01" from="-92004645#17" to="-334669503"/>
    <trip id="250" depart="111.45" from="33004133" to="-122423293#29"/>
    <trip id="251" depart="111.90" from="-88448875#4" to="25207472#5"/>
    <trip id="252" depart="112.34" from="-122423293#3" to="334669507#0"/>
    <trip id="253" depart="112.79" from="-334669510#0" to="-88453424#8"/>
    <trip id="254" depart="113.24" from="-24858405#6" to="-88448753#5"/>
    <trip id="255" depart="113.68" from="-39653437" to="-87471935#1"/>
    <trip id="256" depart="114.13" from="40991864#1" to="-88448753#5"/>
    <trip id="257" depart="114.57" from="40983752#1" to="87451355#0"/>
    <trip id="258" depart="115.02" from="-43221791#3" to="-30893061#1"/>
    <trip id="259" depart="115.47" from="-122423293#21" to="122423293#38"/>
    <trip id="260" depart="115.91" from="947874653#9" to="-88404755#0"/>
    <trip id="261" depart="116.36" from="334669515#4" to="52525593#1"/>
    <trip id="262" depart="116.80" from="334669517#1" to="40983752#1"/>
    <trip id="263" depart="117.25" from="88453424#1" to="-39653420"/>
    <trip id="264" depart="117.69" from="-122423293#22" to="-34210739#3"/>
    <trip id="265" depart="118.14" from="-33004133" to="34210739#1"/>
    <trip id="266" depart="118.59" from="26715996#10" to="-39653438#1"/>
    <trip id="267" depart="119.03" from="39653406#1" to="40991864#5"/>
    <trip id="268" depart="119.48" from="-37405044" to="31651986#2"/>
    <trip id="269" depart="119.92" from="40040195#4" to="-32505100#1"/>
    <trip id="270" depart="120.37" from="779669376#2" to="913071908"/>
    <trip id="271" depart="120.81" from="-31651992#0" to="-122423293#27"/>
    <trip id="272" depart="121.26" from="-861118976#1" to="34210747#0"/>
    <trip id="273" depart="121.71" from="88453424#7" to="-88448868#5"/>
    <trip id="274" depart="122.15" from="39653427#0" to="-26715996#9"/>
    <trip id="275" depart="122.60" from="38137015#0" to="32505100#5"/>
    <trip id="276" depart="123.04" from="-31651987#0" to="468071646#0"/>
    <trip id="277" depart="123.49" from="88404721#0" to="31651984#1"/>
    <trip id="278" depart="123.94" from="-33004131#1" to="92005137#14"/>
    <trip id="279" depart="124.38" from="595426413#1" to="-88404721#7"/>
    <trip id="280" depart="124.83" from="-88453420#5" to="-88448745#8"/>
    <trip id="281" depart="125.27" from="122423292" to="-88404490#4"/>
    <trip id="282" depart="125.72" from="88404490#4" to="779669376#2"/>
    <trip id="283" depart="126.16" from="-31651987#5" to="88523891#0"/>
    <trip id="284" depart="126.61" from="334669509#1" to="779669383#3"/>
    <trip id="285" depart="127.06" from="39653418#1" to="-88453420#2"/>
    <trip id="286" depart="127.50" from="39653443#3" to="92004645#0"/>
    <trip id="287" depart="127.95" from="-607652771#1" to="779669374#5"/>
    <trip id="288" depart="128.39" from="24858405#10" to="-92005137#0"/>
    <trip id="289" depart="128.84" from="-88453421#0" to="39653437"/>
    <trip id="290" depart="129.29" from="-595426413#1" to="88404721#2"/>
    <trip id="291" depart="129.73" from="87451355#1" to="-30966937#2"/>
    <trip id="292" depart="130.18" from="88448751#1" to="-40983752#2"/>
    <trip id="293" depart="130.62" from="-92004645#14" to="31651987#1"/>
    <trip id="294" depart="131.07" from="-88448851#2" to="-122423293#30"/>
    <trip id="295" depart="131.51" from="88404721#1" to="-38137015#1"/>
    <trip id="296" depart="131.96" from="-39653437" to="779669373#2"/>
    <trip id="297" depart="132.41" from="-88404781#1" to="88448751#1"/>
    <trip id="298" depart="132.85" from="39653414#0" to="-607652771#0"/>
    <trip id="299" depart="133.30" from="-122423293#0" to="88453424#1"/>
    <trip id="300" depart="133.74" from="-30966936#2" to="39653424#2"/>
    <trip id="301" depart="134.19" from="-947874653#1" to="40983752#5"/>
    <trip id="302" depart="134.64" from="38137015#0" to="334669509#0"/>
    <trip id="303" depart="135.08" from="-947874653#4" to="739765770#1"/>
    <trip id="304" depart="135.53" from="-31651984#3" to="-39653442"/>
    <trip id="305" depart="135.97" from="38137015#1" to="-779669375#5"/>
    <trip id="306" depart="136.42" from="30966936#1" to="-92004645#14"/>
    <trip id="307" depart="136.86" from="122423293#4" to="-88453420#1"/>
    <trip id="308" depart="137.31" from="40040195#2" to="-87471938#1"/>
    <trip id="309" depart="137.76" from="39653416#0" to="-52525593#0"/>
    <trip id="310" depart="138.20" from="-43221791#2" to="-33004131#3"/>
    <trip id="311" depart="138.65" from="-39653414#1" to="-33004131#1"/>
    <trip id="312" depart="139.09" from="232998885#0" to="40991862#4"/>
    <trip id="313" depart="139.54" from="-39653402#1" to="-39653437"/>
    <trip id="314" depart="139.98" from="-92005137#7" to="39653430"/>
    <trip id="315" depart="140.43" from="92004645#7" to="122423293#2"/>
    <trip id="316" depart="140.88" from="-779669373#6" to="-31651987#1"/>
    <trip id="317" depart="141.32" from="-39653415" to="-39653445"/>
    <trip id="318" depart="141.77" from="-38137015#1" to="-122423293#14"/>
    <trip id="319" depart="142.21" from="122423293#8" to="-595426413#0"/>
    <trip id="320" depart="142.66" from="92004645#4" to="24858405#3"/>
    <trip id="321" depart="143.11" from="39653403#2" to="-334669502"/>
    <trip id="322" depart="143.55" from="88448708#4" to="-92005137#2"/>
    <trip id="323" depart="144.00" from="88448745#12" to="26715996#10"/>
    <trip id="324" depart="144.44" from="-92004645#4" to="-88453420#6"/>
    <trip id="325" depart="144.89" from="-39653402#0" to="-24858405#7"/>
    <trip id="326" depart="145.33" from="88453420#7" to="-92004645#3"/>
    <trip id="327" depart="145.78" from="779669382#1" to="-88448875#11"/>
    <trip id="328" depart="146.23" from="-26715996#7" to="33004131#2"/>
    <trip id="329" depart="146.67" from="-24858406" to="-34210738#1"/>
    <trip id="330" depart="147.12" from="26715996#0" to="-779669375#2"/>
    <trip id="331" depart="147.56" from="947874653#0" to="-32505100#6"/>
    <trip id="332" depart="148.01" from="40991864#5" to="31651986#1"/>
    <trip id="333" depart="148.46" from="739765770#1" to="-39653443#4"/>
    <trip id="334" depart="148.90" from="122423293#28" to="-88453421#5"/>
    <trip id="335" depart="149.35" from="-88453424#12" to="88404781#2"/>
    <trip id="336" depart="149.79" from="92005137#7" to="-779669375#4"/>
    <trip id="337" depart="150.24" from="33004131#6" to="31651987#0"/>
    <trip id="338" depart="150.68" from="39653455#2" to="88453424#0"/>
    <trip id="339" depart="151.13" from="-39653431#1" to="-39653431#1"/>
    <trip id="340" depart="151.58" from="34210739#4" to="-34210743#1"/>
    <trip id="341" depart="152.02" from="-37681512#0" to="-26715996#8"/>
    <trip id="342" depart="152.47" from="-105317949" to="-88453421#5"/>
    <trip id="343" depart="152.91" from="31651985#2" to="-779669374#1"/>
    <trip id="344" depart="153.36" from="-40040195#3" to="39653403#2"/>
    <trip id="345" depart="153.80" from="39653416#0" to="-88453424#12"/>
    <trip id="346" depart="154.25" from="37681512#0" to="88453375#1"/>
    <trip id="347" depart="154.70" from="700785352#2" to="32505100#2"/>
    <trip id="348" depart="155.14" from="34210739#6" to="88453420#10"/>
    <trip id="349" depart="155.59" from="-88453420#4" to="232998885#1"/>
    <trip id="350" depart="156.03" from="334669515#1" to="88448875#11"/>
    <trip id="351" depart="156.48" from="861118976#0" to="-26715996#14"/>
    <trip id="352" depart="156.93" from="-37202435#1" to="-779669375#6"/>
    <trip id="353" depart="157.37" from="40040195#5" to="26710902#3"/>
    <trip id="354" depart="157.82" from="-779669374#2" to="-33004133"/>
    <trip id="355" depart="158.26" from="37909056#0" to="38137016"/>
    <trip id="356" depart="158.71" from="88453420#8" to="-947874653#4"/>
    <trip id="357" depart="159.15" from="-947874653#9" to="-30847142#1"/>
    <trip id="358" depart="159.60" from="-24858405#0" to="-88453420#12"/>
    <trip id="359" depart="160.05" from="-87471940#0" to="-40991862#3"/>
    <trip id="360" depart="160.49" from="-31651984#0" to="88523891#2"/>
    <trip id="361" depart="160.94" from="87471935#1" to="26715996#11"/>
    <trip id="362" depart="161.38" from="88453424#12" to="947874653#9"/>
    <trip id="363" depart="161.83" from="34387714#0" to="-52525591#1"/>
    <trip id="364" depart="162.28" from="-24858405#1" to="40983752#3"/>
    <trip id="365" depart="162.72" from="-92004645#5" to="334669510#1"/>
    <trip id="366" depart="163.17" from="88448875#7" to="-38137015#1"/>
    <trip id="367" depart="163.61" from="30966937#2" to="334669501"/>
    <trip id="368" depart="164.06" from="-947874653#5" to="-31651984#0"/>
    <trip id="369" depart="164.50" from="-88448708#5" to="-87471939"/>
    <trip id="370" depart="164.95" from="34211707#1" to="88404755#3"/>
    <trip id="371" depart="165.40" from="-88404721#1" to="37681512#1"/>
    <trip id="372" depart="165.84" from="-779669374#2" to="88453421#2"/>
    <trip id="373" depart="166.29" from="779669375#5" to="24858405#13"/>
    <trip id="374" depart="166.73" from="-88523891#2" to="-779669383#0"/>
    <trip id="375" depart="167.18" from="-87471940#1" to="92004645#14"/>
    <trip id="376" depart="167.63" from="-88453375#0" to="111266560#1"/>
    <trip id="377" depart="168.07" from="92005137#4" to="334669514"/>
    <trip id="378" depart="168.52" from="24858405#15" to="-88448881#4"/>
    <trip id="379" depart="168.96" from="-39653403#2" to="-88448745#0"/>
    <trip id="380" depart="169.41" from="40991862#0" to="32505100#2"/>
    <trip id="381" depart="169.85" from="40991864#0" to="-39653424#3"/>
    <trip id="382" depart="170.30" from="24858405#9" to="88453403#2"/>
    <trip id="383" depart="170.75" from="-88453421#4" to="38137015#1"/>
    <trip id="384" depart="171.19" from="-33004131#2" to="92004645#2"/>
    <trip id="385" depart="171.64" from="32505097#0" to="-40040195#5"/>
    <trip id="386" depart="172.08" from="-34210743#0" to="24858405#14"/>
    <trip id="387" depart="172.53" from="25207472#1" to="-31651984#3"/>
    <trip id="388" depart="172.97" from="92731453" to="88448875#4"/>
    <trip id="389" depart="173.42" from="-92004645#10" to="-32505100#5"/>
    <trip id="390" depart="173.87" from="87451363" to="-947874653#1"/>
    <trip id="391" depart="174.31" from="39653428#0" to="105317957"/>
    <trip id="392" depart="174.76" from="-700785352#2" to="87471935#0"/>
    <trip id="393" depart="175.20" from="92005137#10" to="-40983752#2"/>
    <trip id="394" depart="175.65" from="25207472#0" to="-88448819#2"/>
    <trip id="395" depart="176.10" from="88448881#4" to="105317949"/>
    <trip id="396" depart="176.54" from="88448745#8" to="88448708#2"/>
    <trip id="397" depart="176.99" from="-739765770#1" to="700785352#1"/>
    <trip id="398" depart="177.43" from="-88453420#1" to="88453420#11"/>
    <trip id="399" depart="177.88" from="122423293#1" to="779669376#0"/>
    <trip id="400" depart="178.32" from="-779669373#6" to="-779669374#6"/>
    <trip id="401" depart="178.77" from="31651982#1" to="947874653#8"/>
    <trip id="402" depart="179.22" from="-947874653#2" to="-34210738#0"/>
    <trip id="403" depart="179.66" from="24858405#10" to="-88404721#5"/>
    <trip id="404" depart="180.11" from="25207472#1" to="122423293#9"/>
    <trip id="405" depart="180.55" from="-88523993" to="-87451355#1"/>
    <trip id="406" depart="181.00" from="-39653406#0" to="38137015#0"/>
    <trip id="407" depart="181.45" from="26715996#9" to="-39654089#1"/>
    <trip id="408" depart="181.89" from="511023280" to="-24858405#12"/>
    <trip id="409" depart="182.34" from="397336437#1" to="39653403#0"/>
    <trip id="410" depart="182.78" from="779669375#2" to="-88448830#2"/>