<?xml version="1.0" encoding="UTF-8"?>

<!-- generated on 2023-10-31 14:20:22 by Eclipse SUMO polyconvert Version 1.18.0
<configuration xmlns:xsi="http://www.w3.org/2001/XMLSchema-instance" xsi:noNamespaceSchemaLocation="http://sumo.dlr.de/xsd/polyconvertConfiguration.xsd">

    <input>
        <net-file value="katrinebjerg-big/katrinebjerg-big.net.xml"/>
        <osm-files value="katrinebjerg-big/katrinebjerg-big.osm"/>
        <type-file value="typemap.xml"/>
    </input>

    <output>
        <output-file value="katrinebjerg-big/katrinebjerg-big.poly.xml"/>
    </output>

</configuration>
-->

<additional xmlns:xsi="http://www.w3.org/2001/XMLSchema-instance" xsi:noNamespaceSchemaLocation="http://sumo.dlr.de/xsd/additional_file.xsd">
    <location netOffset="-572248.30,-6224429.69" convBoundary="-0.00,-155.32,3162.05,2617.32" origBoundary="10.163485,56.157711,10.214649,56.182595" projParameter="+proj=utm +zone=32 +ellps=WGS84 +datum=WGS84 +units=m +no_defs"/>

    <poly id="100281655" type="building" color="255,230,230" fill="1" layer="-1.00" shape="2730.310413,1420.569926 2726.493197,1419.378700 2728.723600,1412.237283 2733.296404,1397.589041 2737.601584,1398.933541 2743.246471,1380.875269 2742.622712,1380.675092 2745.208308,1372.404387 2755.945919,1338.037134 2761.985895,1318.705566 2736.320601,1310.719330 2734.465279,1316.653868 2717.880198,1311.487431 2714.544356,1322.171904 2715.767252,1322.560686 2709.016818,1344.173175 2722.970526,1348.514231 2729.806609,1326.624950 2732.258799,1327.391503 2733.285238,1324.103120 2747.665051,1328.585307 2745.829321,1334.464521 2738.725764,1332.258334 2728.179049,1366.016681 2727.042504,1365.662805 2726.752759,1366.603995 2702.360056,1359.018745 2701.878313,1358.865590 2716.148805,1313.182659 2713.443215,1312.344884 2701.765260,1349.712686 2682.610508,1343.755527 2677.478545,1360.197501 2661.455444,1355.219234 2655.764496,1373.443787 2691.022269,1384.413946 2686.371200,1399.283510 2684.160657,1406.358499 2678.138243,1404.483041 2673.309285,1419.939528 2725.435288,1436.170274 2730.310413,1420.569926"/>
    <poly id="100288110" type="building" color="255,230,230" fill="1" layer="-1.00" shape="2707.508391,1280.268418 2703.117543,1264.650574 2692.493123,1267.370204 2691.508282,1264.024348 2694.291553,1264.329107 2694.330388,1263.884486 2702.850030,1263.966808 2703.561604,1248.861314 2692.580194,1247.845306 2693.911631,1244.517723 2734.238345,1260.452968 2739.941287,1246.180763 2652.481967,1211.731223 2646.818264,1226.260272 2687.349430,1242.243173 2685.694898,1246.288717 2670.043618,1245.948059 2670.320881,1239.685308 2654.270227,1233.415228 2652.387164,1274.316518 2668.731111,1269.848856 2669.083311,1262.852670 2684.713542,1263.682788 2685.797588,1269.167821 2640.309887,1281.630853 2641.090283,1284.594616 2639.711917,1284.926750 2641.623432,1292.107250 2642.965711,1291.707691 2644.531554,1297.345862 2707.508391,1280.268418"/>
    <poly id="1009135698" type="building" color="255,230,230" fill="1" layer="-1.00" shape="2606.479785,1020.872750 2605.862193,1020.316462 2605.604747,1019.410229 2605.591777,1018.730920 2612.897531,999.810920 2613.619564,999.367110 2614.494492,999.059562 2615.258805,999.039526 2620.184725,1001.140625 2620.609444,1001.715808 2620.801505,1002.453911 2620.744616,1003.221059 2613.386840,1021.917487 2612.886785,1022.454238 2611.924545,1022.782524 2611.081462,1022.689859 2606.479785,1020.872750"/>
    <poly id="1009135712" type="building" color="255,230,230" fill="1" layer="-1.00" shape="2545.654999,1303.209989 2561.487995,1263.275981 2565.090211,1264.697081 2572.195880,1267.504167 2556.369006,1307.438244 2551.650235,1305.585743 2545.654999,1303.209989"/>
    <poly id="1009135713" type="building" color="255,230,230" fill="1" layer="-1.00" shape="2580.761100,1225.172210 2591.962465,1229.598319 2576.291487,1269.123150 2572.195880,1267.504167 2565.090211,1264.697081 2576.232641,1236.592951 2580.761100,1225.172210"/>
    <poly id="1009135714" type="building" color="255,230,230" fill="1" layer="-1.00" shape="2522.121842,1347.373523 2537.569689,1308.490296 2540.473868,1301.160172 2545.654999,1303.209989 2551.650235,1305.585743 2528.034692,1365.132923 2526.683937,1364.597239 2516.852251,1360.707303 2517.761105,1358.452142 2518.670155,1356.185853 2522.121842,1347.373523"/>
    <poly id="1009135715" type="building" color="255,230,230" fill="1" layer="-1.00" shape="2540.473868,1301.160172 2537.569689,1308.490296 2509.609893,1297.437317 2510.636148,1294.861363 2514.982563,1283.893810 2542.942630,1294.935694 2540.473868,1301.160172"/>
    <poly id="1009135716" type="building" color="255,230,230" fill="1" layer="-1.00" shape="2479.278392,1340.781043 2482.736023,1331.979919 2522.121842,1347.373523 2518.670155,1356.185853 2482.930043,1342.214070 2479.278392,1340.781043"/>
    <poly id="1009135717" type="building" color="255,230,230" fill="1" layer="-1.00" shape="2479.278392,1340.781043 2482.930043,1342.214070 2479.303225,1351.457541 2440.022266,1336.099561 2436.203932,1334.608001 2439.830669,1325.364495 2479.278392,1340.781043"/>
    <poly id="1009135718" type="man_made" color="255,230,230" fill="1" layer="-1.00" shape="2286.745250,1286.505310 2319.764657,1299.492917 2320.927770,1296.540798 2319.953183,1296.156454 2319.688788,1279.241604 2331.544044,1267.525179 2326.548649,1265.501125 2323.878855,1264.742150 2312.636682,1265.147534 2306.687091,1264.420521 2298.783613,1261.410738 2297.101002,1260.312727 2295.938479,1263.231464 2286.745250,1286.505310"/>
    <poly id="1009135722" type="building" color="255,230,230" fill="1" layer="-1.00" shape="2312.299431,1318.399471 2316.802336,1320.170020 2320.910400,1321.788975 2321.222178,1321.003998 2324.932102,1311.605994 2328.343064,1302.970928 2329.544985,1299.930427 2330.223489,1300.198292 2342.003046,1288.191133 2341.976496,1276.880064 2341.962262,1271.992654 2336.500437,1269.648753 2331.544044,1267.525179 2319.688788,1279.241604 2319.953183,1296.156454 2320.927770,1296.540798 2319.764657,1299.492917 2316.321309,1308.205353 2312.299431,1318.399471"/>
    <poly id="1009135731" type="building" color="255,230,230" fill="1" layer="-1.00" shape="2512.789919,679.082842 2498.517326,673.657119 2473.952411,737.997272 2488.231025,743.423024 2512.789919,679.082842"/>
    <poly id="1009135732" type="building" color="255,230,230" fill="1" layer="-1.00" shape="2557.830029,812.780115 2553.175132,810.795153 2556.996383,801.120966 2559.464287,800.295739 2561.524058,801.144390 2562.094883,802.957826 2562.070194,804.371221 2559.034090,812.478304 2557.830029,812.780115"/>
    <poly id="1009135738" type="building" color="255,230,230" fill="1" layer="-1.00" shape="2435.670701,868.392281 2445.143038,843.453722 2455.330705,847.305139 2452.954399,853.564676 2454.244009,854.054735 2456.311148,854.836670 2458.238236,849.760474 2483.543727,859.330623 2485.855068,853.236955 2515.393302,864.417444 2511.103161,875.697691 2481.571204,864.517340 2479.461881,870.069043 2454.162850,860.487897 2454.514463,859.558901 2452.681924,858.858987 2451.157718,858.286909 2445.858316,872.243675 2435.670701,868.392281"/>
    <poly id="1009135739" type="landuse" color="194,194,130" fill="1" layer="-3.00" shape="2518.657762,817.962887 2527.587706,794.595843 2551.818962,803.802526 2546.142889,818.676595 2541.663208,816.973018 2538.415438,825.466056 2518.657762,817.962887"/>
    <poly id="1009135744" type="building" color="255,230,230" fill="1" layer="-1.00" shape="2414.269355,784.870594 2412.764133,783.920357 2408.540107,778.948428 2408.094766,778.127994 2407.866368,776.977367 2408.437443,775.573496 2409.768601,774.394393 2411.251506,773.774560 2412.982602,774.238905 2415.182906,776.292243 2418.283006,779.819625 2418.426021,781.235944 2418.292325,782.491584 2416.903924,784.103853 2415.525612,784.781170 2414.269355,784.870594"/>
    <poly id="1009135745" type="building" color="255,230,230" fill="1" layer="-1.00" shape="2308.992026,759.580409 2308.635032,761.533510 2308.930415,763.119463 2310.429477,764.782034 2313.738984,765.919502 2316.783013,766.250811 2318.224360,764.806419 2319.074439,763.073421 2319.550766,760.688232 2318.546910,758.767100 2314.979882,757.079655 2312.649352,756.437927 2310.618855,757.115055 2309.838033,758.081120 2308.992026,759.580409"/>
    <poly id="1009135746" type="natural" color="140,196,107" fill="1" layer="-4.00" shape="2345.100572,852.920452 2345.601525,849.121869 2349.642497,849.982662 2366.384283,857.332310 2364.273329,860.490554 2345.100572,852.920452"/>
    <poly id="1009135767" type="building" color="255,230,230" fill="1" layer="-1.00" shape="2304.845335,1107.654226 2305.041646,1105.653797 2306.754255,1101.108163 2308.574832,1099.993215 2310.807177,1100.199069 2313.405096,1101.168299 2314.784712,1103.262962 2314.254473,1105.535889 2313.621395,1107.651170 2312.107227,1110.073952 2310.680332,1110.694791 2309.096063,1110.722870 2306.444206,1109.641379 2305.478294,1108.756229 2304.845335,1107.654226"/>
    <poly id="1009135780" type="building" color="255,230,230" fill="1" layer="-1.00" shape="2308.879969,1064.630634 2323.454623,1027.679657 2336.366031,1032.747142 2329.595119,1049.917965 2342.747056,1055.078720 2347.328026,1043.469408 2360.091310,1048.478724 2341.130470,1096.541328 2345.189458,1098.137181 2341.583128,1107.280927 2331.947628,1103.495045 2333.331595,1099.990152 2330.734649,1098.965264 2332.956797,1093.337532 2328.373520,1091.532175 2340.459879,1060.872303 2327.307957,1055.711555 2321.791280,1069.698076 2308.879969,1064.630634"/>
    <poly id="1009150181" type="landuse" color="194,194,130" fill="1" layer="-3.00" shape="2464.262882,1245.291655 2468.843421,1233.715856 2487.237360,1241.317502 2482.768537,1252.895231 2464.262882,1245.291655"/>
    <poly id="1009150182" type="parking" color="184,184,179" fill="1" layer="-1.00" shape="2520.284024,1271.584773 2524.397474,1273.961028 2529.094868,1265.304045 2532.851866,1255.728912 2527.891273,1253.849951 2524.467616,1263.542234 2520.284024,1271.584773"/>
    <poly id="1009150183" type="parking" color="184,184,179" fill="1" layer="-1.00" shape="2485.549209,1318.825876 2484.167467,1314.371027 2487.060962,1312.629196 2491.267242,1309.685706 2494.690070,1306.439099 2498.643585,1301.966052 2502.404259,1305.338053 2498.619351,1309.758377 2494.282659,1313.768304 2489.457637,1316.934773 2485.549209,1318.825876"/>
    <poly id="1009150185" type="amenity" color="237,199,199" fill="1" layer="-1.00" shape="2339.557949,1248.861995 2338.810632,1240.777926 2336.480114,1236.228675 2333.380676,1232.322850 2330.136122,1229.616809 2324.360277,1226.042882 2317.763155,1224.692292 2311.236310,1225.369048 2306.365335,1227.967165 2302.021773,1232.377933 2297.394447,1240.245967 2294.061163,1250.841726 2294.114810,1254.538645 2302.058699,1259.152200 2308.762114,1261.172567 2316.614113,1261.431748 2324.711730,1260.782357 2325.186808,1255.970264 2326.598468,1252.298864 2329.914693,1249.105934 2333.850295,1248.506532 2339.557949,1248.861995"/>
    <poly id="1009150190" type="building" color="255,230,230" fill="1" layer="-1.00" shape="2258.359268,1387.706526 2259.309105,1385.229378 2263.294309,1386.768214 2257.746803,1401.132777 2253.761612,1399.593946 2258.359268,1387.706526"/>
    <poly id="1009150191" type="building" color="255,230,230" fill="1" layer="-1.00" shape="2224.603424,1377.812532 2220.047556,1389.444665 2215.581746,1387.685995 2220.211913,1376.066281 2224.603424,1377.812532"/>
    <poly id="1009150192" type="building" color="255,230,230" fill="1" layer="-1.00" shape="2220.353019,1331.171442 2224.269797,1332.720182 2220.847424,1341.310597 2216.875161,1339.738630 2220.353019,1331.171442"/>
    <poly id="1009150197" type="landuse" color="194,194,130" fill="1" layer="-3.00" shape="2470.634145,1353.187649 2428.315454,1356.034059 2427.487941,1358.257259 2429.939384,1359.424394 2456.652913,1359.667727 2467.392110,1362.092736 2470.634145,1353.187649"/>
    <poly id="1009150198" type="landuse" color="194,194,130" fill="1" layer="-3.00" shape="2509.628473,1360.759296 2474.179883,1352.859886 2473.991474,1353.691536 2470.743412,1362.941623 2492.386102,1367.627622 2505.575706,1371.275546 2509.628473,1360.759296"/>
    <poly id="1009150199" type="landuse" color="194,194,130" fill="1" layer="-3.00" shape="2516.852251,1360.707303 2516.231541,1362.110292 2512.986172,1361.597195 2508.842395,1372.345636 2510.261639,1372.871377 2520.866903,1368.380902 2526.683937,1364.597239 2516.852251,1360.707303"/>
    <poly id="1009740368" type="building" color="255,230,230" fill="1" layer="-1.00" shape="2423.687416,535.032654 2425.323910,536.296891 2429.200208,531.299196 2427.569924,530.035066 2423.687416,535.032654"/>
    <poly id="1009740377" type="landuse" color="194,194,130" fill="1" layer="-3.00" shape="2262.308923,859.795166 2272.530862,863.824861 2274.837250,857.998180 2264.615299,853.968480 2262.308923,859.795166"/>
    <poly id="1009740378" type="landuse" color="194,194,130" fill="1" layer="-3.00" shape="2250.668840,849.450979 2255.186625,851.110382 2258.036243,843.333828 2253.518257,841.685551 2250.668840,849.450979"/>
    <poly id="1009740379" type="landuse" color="194,194,130" fill="1" layer="-3.00" shape="2266.114691,843.830619 2262.443923,853.106898 2264.615299,853.968480 2274.837250,857.998180 2280.346205,860.164688 2278.183002,865.615353 2286.646670,868.957669 2292.480895,854.219621 2266.114691,843.830619"/>
    <poly id="1009740380" type="landuse" color="194,194,130" fill="1" layer="-3.00" shape="2261.116822,867.622820 2262.257484,864.536705 2265.658130,865.787048 2264.511256,868.873053 2261.116822,867.622820"/>
    <poly id="1009740381" type="landuse" color="194,194,130" fill="1" layer="-3.00" shape="2248.956045,859.718722 2251.579440,853.162801 2249.142993,852.185289 2246.519407,858.752341 2248.956045,859.718722"/>
    <poly id="1009740382" type="landuse" color="194,194,130" fill="1" layer="-3.00" shape="2251.739245,860.757928 2254.190731,854.443932 2259.619947,856.553363 2257.162438,862.856118 2251.739245,860.757928"/>
    <poly id="1021042224" type="tourism" color="207,245,201" fill="1" layer="-2.00" shape="2150.883377,410.778254 2157.309961,410.578179 2164.414020,410.356485 2164.068012,398.449874 2155.998863,398.799526 2153.288382,398.919430 2150.696134,402.603777 2150.883377,410.778254"/>
    <poly id="1021907685" type="natural" color="140,196,107" fill="1" layer="-4.00" shape="2158.741227,417.226856 2160.065965,418.207260 2171.437846,402.596733 2157.598287,392.192364 2157.976124,397.976674 2160.063087,397.990663 2164.406618,397.910266 2164.791501,410.797209 2158.469327,411.065882 2158.741227,417.226856"/>
    <poly id="1021907686" type="natural" color="140,196,107" fill="1" layer="-4.00" shape="2150.377102,411.314951 2156.450214,415.728705 2156.251186,411.094145 2155.877618,411.143318 2150.377102,411.314951"/>
    <poly id="1021907687" type="natural" color="140,196,107" fill="1" layer="-4.00" shape="2150.377102,411.314951 2146.160465,408.024431 2150.034004,402.814925 2150.377102,411.314951"/>
    <poly id="1027450627" type="parking" color="184,184,179" fill="1" layer="-1.00" shape="2610.885131,1991.203546 2621.466097,1993.704147 2628.290634,1962.808312 2631.145155,1938.422364 2623.492122,1937.509235 2619.720973,1939.035233 2616.396746,1965.427959 2610.885131,1991.203546"/>
    <poly id="1027450628" type="parking" color="184,184,179" fill="1" layer="-1.00" shape="2621.845942,1929.732214 2632.265907,1927.955135 2692.346469,1913.688087 2689.534441,1901.214970 2624.705640,1916.055834 2621.845942,1929.732214"/>
    <poly id="1036005518" type="landuse" color="194,194,130" fill="1" layer="-3.00" shape="2128.538589,842.184982 2151.301528,840.120094 2150.048752,839.653032 2139.435887,836.307057 2127.818241,832.876863 2128.538589,842.184982"/>
    <poly id="1036006902" type="natural" color="140,196,107" fill="1" layer="-4.00" shape="2591.737547,722.509098 2595.554496,722.687124 2600.446747,721.047085 2537.397327,611.648805 2481.184011,643.931486 2482.508601,645.268231 2517.479293,625.372522 2522.793113,623.428042 2527.889768,622.537363 2532.751985,622.622255 2537.231486,624.348079 2540.873237,626.738360 2545.622967,631.485816 2549.920281,638.663391 2554.433549,646.278911 2558.467715,652.873010 2553.297278,656.211511 2554.529454,658.214615 2559.499808,655.306788 2564.568972,663.811495 2574.068446,680.052759 2583.248848,695.709582 2586.795679,701.749704 2589.520110,707.931313 2590.883492,713.443457 2591.737547,722.509098"/>
    <poly id="1036265443" type="amenity" color="237,199,199" fill="1" layer="-1.00" shape="2396.086575,1716.309667 2397.316962,1712.701924 2403.953654,1714.943947 2402.729276,1718.562926 2396.086575,1716.309667"/>
    <poly id="1036265896" type="amenity" color="237,199,199" fill="1" layer="-1.00" shape="2455.227668,1691.936817 2460.121498,1678.396027 2464.497181,1685.296606 2465.388602,1687.238085 2455.227668,1691.936817"/>
    <poly id="1036268243" type="landuse" color="194,194,130" fill="1" layer="-3.00" shape="2557.774180,1452.741956 2571.251501,1458.387836 2573.096550,1454.802013 2571.989785,1452.389185 2559.270516,1450.630658 2558.607940,1450.875129 2557.940892,1451.375571 2557.765484,1451.817806 2557.774180,1452.741956"/>
    <poly id="1036268244" type="landuse" color="194,194,130" fill="1" layer="-3.00" shape="2575.051602,1442.078326 2582.675596,1444.349003 2581.456608,1448.357666 2576.071942,1446.593689 2575.831769,1446.121927 2575.051602,1442.078326"/>
    <poly id="1036268245" type="landuse" color="194,194,130" fill="1" layer="-3.00" shape="2556.406667,1444.635867 2557.852840,1445.395878 2558.208476,1445.301898 2563.753462,1440.734259 2563.425103,1437.845203 2559.652682,1436.576982 2556.406667,1444.635867"/>
    <poly id="1036268246" type="amenity" color="237,199,199" fill="0" layer="-1.00" shape="2559.591646,1444.691511 2563.471730,1441.219167"/>
    <poly id="1036268247" type="amenity" color="237,199,199" fill="0" layer="-1.00" shape="2575.240492,1444.063213 2575.741917,1446.643584 2578.085406,1447.586271"/>
    <poly id="1036268248" type="amenity" color="237,199,199" fill="0" layer="-1.00" shape="2559.819589,1450.484396 2570.241329,1451.868802"/>
    <poly id="1036268249" type="tourism" color="207,245,201" fill="1" layer="-2.00" shape="2564.677283,1447.930866 2561.784537,1446.789338 2562.959033,1443.904275 2565.251830,1446.326692 2564.677283,1447.930866"/>
    <poly id="1036268250" type="amenity" color="237,199,199" fill="1" layer="-1.00" shape="2585.257203,1461.515916 2590.582240,1447.147862 2583.103401,1444.389877 2577.784595,1458.758049 2585.257203,1461.515916"/>
    <poly id="1036478925" type="landuse" color="194,194,130" fill="1" layer="-3.00" shape="1194.717208,2059.651992 1207.579688,2055.876141 1209.286787,2055.905434 1210.643588,2056.808178 1211.155102,2058.843057 1210.393290,2061.624224 1207.066401,2066.610126 1205.044447,2069.369671 1201.941028,2070.741372 1197.271949,2070.716925 1193.635894,2068.027291 1192.108796,2064.383053 1192.263874,2061.858653 1193.549415,2060.400095 1194.717208,2059.651992"/>
    <poly id="1036478927" type="landuse" color="194,194,130" fill="1" layer="-3.00" shape="1216.392558,2086.897594 1230.050847,2055.927813 1226.685738,2053.732628 1225.536657,2053.390066 1224.252535,2054.403342 1222.286242,2057.174967 1213.848185,2071.613636 1216.392558,2086.897594"/>
    <poly id="1037051678" type="landuse" color="194,194,130" fill="1" layer="-3.00" shape="1152.237846,2036.502719 1188.281448,2026.511678 1191.224779,2043.884224 1191.267474,2044.653094 1183.017243,2047.060892 1183.044931,2046.170773 1182.959814,2043.530928 1182.170941,2041.012601 1180.724727,2038.805839 1178.282040,2036.771237 1175.320878,2035.640602 1172.149717,2035.530551 1169.110170,2036.435810 1166.520358,2038.272775 1164.919575,2040.371616 1164.849221,2042.663688 1164.364752,2043.757490 1163.462272,2044.966580 1162.767598,2045.644878 1161.858037,2045.818531 1160.653652,2045.441641 1157.062163,2043.409616 1154.298769,2041.247072 1153.347269,2040.607341 1152.788848,2039.495656 1152.237846,2036.502719"/>
    <poly id="1037051679" type="landuse" color="194,194,130" fill="1" layer="-3.00" shape="1169.807697,2050.073860 1169.216917,2049.763153 1168.271146,2048.789544 1168.083663,2047.773278 1167.919483,2046.846471 1167.907812,2045.354526 1168.044644,2043.531155 1168.705982,2042.262268 1169.912439,2040.345917 1171.687339,2039.318777 1174.055984,2038.791648 1176.352443,2039.576909 1178.279123,2040.923581 1179.271408,2042.443478 1179.813114,2044.167163 1179.868906,2045.982706 1179.428849,2047.745213 1179.121528,2048.285431 1170.724519,2050.200908 1169.807697,2050.073860"/>
    <poly id="1037090705" type="amenity" color="237,199,199" fill="1" layer="-1.00" shape="1823.566254,1342.668819 1819.941150,1328.200715 1831.053904,1325.209075 1831.934811,1328.497257 1834.048608,1328.010603 1835.441603,1333.289222 1836.976450,1332.881612 1838.601757,1338.732007 1823.566254,1342.668819"/>
    <poly id="1037090706" type="amenity" color="237,199,199" fill="1" layer="-1.00" shape="1848.203201,1333.710421 1847.668400,1331.597132 1856.669915,1329.303767 1857.210921,1331.417165 1848.203201,1333.710421"/>
    <poly id="1037090707" type="amenity" color="237,199,199" fill="1" layer="-1.00" shape="1848.711184,1329.477746 1848.058371,1327.006176 1857.123332,1324.635983 1857.776140,1327.107554 1848.711184,1329.477746"/>
    <poly id="1037090708" type="amenity" color="237,199,199" fill="1" layer="-1.00" shape="1851.082696,1324.865418 1850.640108,1323.165626 1858.681650,1321.078301 1859.124234,1322.778095 1851.082696,1324.865418"/>
    <poly id="1037101059" type="landuse" color="194,194,130" fill="1" layer="-3.00" shape="2006.916718,1071.017361 1988.530128,1065.054418 1970.648693,1052.877266 1968.715394,1051.541262 1967.770039,1049.465373 1970.340588,1045.569033 2006.916718,1071.017361"/>
    <poly id="1037101060" type="landuse" color="194,194,130" fill="1" layer="-3.00" shape="1931.720622,1016.534372 1965.154222,1041.638451 1962.589848,1045.178663 1961.167228,1045.554778 1959.764125,1045.163093 1928.202487,1020.993209 1931.720622,1016.534372"/>
    <poly id="1037101061" type="landuse" color="194,194,130" fill="1" layer="-3.00" shape="1926.523736,1019.661633 1930.256684,1015.351238 1899.821026,991.056357 1898.196405,993.054334 1898.236572,994.680367 1898.634989,996.780167 1901.705555,999.516254 1926.523736,1019.661633"/>
    <poly id="1037101062" type="landuse" color="194,194,130" fill="1" layer="-3.00" shape="1895.237872,987.793122 1880.166368,974.718756 1878.656701,975.817002 1878.153446,977.979119 1878.830562,980.484508 1884.189100,985.241763 1889.481207,989.530313 1891.540004,990.078048 1892.881767,990.067880 1895.237872,987.793122"/>
    <poly id="1037330949" type="landuse" color="194,194,130" fill="1" layer="-3.00" shape="2593.659028,1338.982554 2612.025196,1333.570369 2606.146972,1332.320957 2602.726223,1331.181305 2598.551075,1330.919070 2597.138376,1331.439869 2595.675377,1333.061908 2594.803906,1335.662814 2593.659028,1338.982554"/>
    <poly id="1037330950" type="landuse" color="194,194,130" fill="1" layer="-3.00" shape="2595.221398,1340.913521 2618.017738,1333.964586 2623.471699,1333.904093 2628.323435,1333.476836 2629.859708,1333.347846 2671.957562,1322.205834 2673.944310,1328.986897 2673.735094,1329.940632 2671.992388,1332.993845 2671.489678,1332.973916 2670.256946,1328.532741 2627.999056,1340.306523 2629.364507,1345.328896 2627.311731,1345.871890 2625.900482,1340.982307 2596.978664,1349.104363 2598.090242,1352.663929 2597.672121,1352.779078 2591.874483,1346.209756 2592.004960,1344.074596 2592.764234,1342.562714 2593.837996,1341.535026 2595.221398,1340.913521"/>
    <poly id="103881159" type="building" color="255,230,230" fill="1" layer="-1.00" shape="1181.352877,381.779561 1181.943861,384.628454 1187.052136,383.780909 1188.328235,390.871859 1188.913784,394.399736 1189.902082,400.160997 1141.299384,407.476873 1138.685838,391.791079 1171.247809,386.393269 1170.774809,383.546400 1178.892462,382.171546 1181.352877,381.779561"/>
    <poly id="103881161" type="building" color="255,230,230" fill="1" layer="-1.00" shape="1123.939108,498.387157 1120.189049,484.863853 1116.997493,467.019619 1116.352637,455.709194 1116.724956,453.555887 1115.427478,451.696819 1114.553047,452.338652 1112.462188,449.653331 1113.262290,448.999091 1112.337217,447.157534 1130.205690,434.995334 1149.020104,425.999883 1169.620768,419.706906 1171.668449,426.722017 1164.627055,429.094981 1168.577447,441.797961 1172.154875,466.473012 1173.199380,473.303943 1173.167091,494.755520 1180.205521,492.549507 1182.877726,501.902005 1125.283008,518.203577 1122.772637,509.187862 1138.686550,504.139218 1135.512646,491.071067 1146.774918,488.146970 1150.070402,501.005698 1165.299403,496.780344 1165.508392,475.164811 1161.209622,444.009481 1157.930080,431.306873 1152.073153,432.709374 1133.764330,441.201382 1125.328465,447.380063 1123.345535,456.162950 1123.842041,465.979094 1126.727323,482.482200 1130.645820,496.687471 1123.939108,498.387157"/>
    <poly id="103881168" type="amenity" color="237,199,199" fill="1" layer="-1.00" shape="1265.948364,343.298720 1270.127578,342.657975 1271.803984,353.563105 1267.630990,354.203954 1265.948364,343.298720"/>
    <poly id="103881169" type="building" color="255,230,230" fill="1" layer="-1.00" shape="1143.889290,381.037284 1142.068788,370.185404 1162.358909,366.803752 1164.173343,377.644405 1143.889290,381.037284"/>
    <poly id="103881170" type="building" color="255,230,230" fill="1" layer="-1.00" shape="1096.333677,355.130295 1093.349887,337.111527 1135.044097,330.244480 1134.362835,326.136088 1158.639284,322.143633 1162.297647,344.281868 1096.333677,355.130295"/>
    <poly id="103881173" type="building" color="255,230,230" fill="1" layer="-1.00" shape="1104.017752,389.594173 1132.449183,385.260838 1130.723413,373.954158 1106.084893,377.706783 1105.364225,372.996572 1101.565026,373.577189 1104.017752,389.594173"/>
    <poly id="103881174" type="amenity" color="237,199,199" fill="1" layer="-1.00" shape="1155.211387,417.411581 1154.474950,413.625078 1165.294449,411.539499 1166.024666,415.325897 1155.211387,417.411581"/>
    <poly id="103881176" type="amenity" color="237,199,199" fill="1" layer="-1.00" shape="1143.342060,420.225067 1142.632933,416.294313 1153.481180,414.342786 1154.190298,418.273541 1143.342060,420.225067"/>
    <poly id="103881180" type="amenity" color="237,199,199" fill="1" layer="-1.00" shape="1169.510074,414.205604 1168.959187,410.466809 1174.389586,409.669301 1174.940469,413.408097 1169.510074,414.205604"/>
    <poly id="103881181" type="amenity" color="237,199,199" fill="1" layer="-1.00" shape="1262.361497,343.448676 1266.597938,342.730983 1264.821676,332.213776 1260.585416,332.920341 1262.361497,343.448676"/>
    <poly id="103881182" type="building" color="255,230,230" fill="1" layer="-1.00" shape="1110.624610,417.671891 1108.818640,406.330450 1136.785740,401.900135 1138.591448,413.252717 1131.565577,414.356909 1110.624610,417.671891"/>
    <poly id="103888720" type="water" color="181,209,209" fill="0" layer="-4.00" shape="1524.088824,362.620964 1525.509824,361.988626 1529.193907,360.883177 1532.244759,357.952239 1537.733489,348.728952 1543.421359,337.683385 1547.941558,326.628841 1553.112534,316.743285 1559.393165,301.945193 1562.481018,296.510119 1567.733816,291.613313 1576.254203,288.876856 1590.920443,278.809899 1606.743024,269.775979 1614.043119,265.760592 1624.905577,259.780552 1641.878293,251.423406 1648.801347,246.221536 1650.097041,244.574025 1681.535224,208.657816"/>
    <poly id="103888723" type="natural" color="140,196,107" fill="1" layer="-4.00" shape="1504.655418,397.397946 1505.092582,399.787811 1505.209237,401.671198 1505.128435,403.117021 1504.489688,404.497575 1503.264054,405.689904 1501.324303,406.146331 1499.015322,406.039781 1497.253128,405.564144 1495.870242,404.705404 1494.961651,402.997633 1494.309508,400.826717 1494.259739,398.666171 1494.759598,396.693207 1495.691173,395.262031 1497.078809,394.762698 1499.632401,394.372500 1501.439908,394.381357 1503.399103,394.960579 1504.655418,397.397946"/>
    <poly id="103913906" type="building" color="255,230,230" fill="1" layer="-1.00" shape="1343.723922,628.432764 1345.570036,640.287106 1366.850606,637.402161 1365.415054,625.877705 1358.337400,626.757979 1343.723922,628.432764"/>
    <poly id="103913907" type="building" color="255,230,230" fill="1" layer="-1.00" shape="1384.105211,578.207154 1383.159682,570.698785 1396.705482,568.994639 1397.657197,576.503118 1384.105211,578.207154"/>
    <poly id="103913908" type="building" color="255,230,230" fill="1" layer="-1.00" shape="1300.447557,620.508977 1299.244916,610.602746 1297.311633,596.943481 1299.080171,596.684408 1309.231976,595.478328 1313.067697,594.931924 1313.400906,597.230923 1316.048102,618.505894 1300.447557,620.508977"/>
    <poly id="103913909" type="building" color="255,230,230" fill="1" layer="-1.00" shape="1364.976202,574.071050 1365.345660,577.873552 1372.361298,576.992222 1377.088873,584.910705 1378.084261,584.460255 1371.696454,573.028788 1369.747818,573.284736 1364.976202,574.071050"/>
    <poly id="103913910" type="building" color="255,230,230" fill="1" layer="-1.00" shape="1261.269356,630.033652 1260.986471,628.058361 1259.349338,616.318972 1255.598591,589.837403 1253.996201,578.243336 1266.760247,576.480836 1273.380842,623.940601 1273.940489,628.247317 1261.269356,630.033652"/>
    <poly id="103913911" type="building" color="255,230,230" fill="1" layer="-1.00" shape="1255.598591,589.837403 1236.043896,592.407411 1234.509571,580.825652 1253.996201,578.243336 1255.598591,589.837403"/>
    <poly id="103913912" type="building" color="255,230,230" fill="1" layer="-1.00" shape="1299.244916,610.602746 1286.461562,612.409346 1281.176584,575.080711 1295.728403,573.026149 1299.080171,596.684408 1297.311633,596.943481 1299.244916,610.602746"/>