<?xml version="1.0" encoding="UTF-8"?>

<!-- generated on 2023-11-02 15:50:09 by Eclipse SUMO polyconvert Version 1.18.0
<configuration xmlns:xsi="http://www.w3.org/2001/XMLSchema-instance" xsi:noNamespaceSchemaLocation="http://sumo.dlr.de/xsd/polyconvertConfiguration.xsd">

    <input>
        <net-file value="horsens/horsens.net.xml"/>
        <osm-files value="horsens/horsens.osm"/>
        <type-file value="typemap.xml"/>
    </input>

    <output>
        <output-file value="horsens/horsens.poly.xml"/>
    </output>

</configuration>
-->

<additional xmlns:xsi="http://www.w3.org/2001/XMLSchema-instance" xsi:noNamespaceSchemaLocation="http://sumo.dlr.de/xsd/additional_file.xsd">
    <location netOffset="-553106.44,-6190511.89" convBoundary="-823.33,-739.72,5392.45,3227.40" origBoundary="9.835715,55.850563,9.934645,55.885823" projParameter="+proj=utm +zone=32 +ellps=WGS84 +datum=WGS84 +units=m +no_defs"/>

    <poly id="1005625072" type="water" color="181,209,209" fill="1" layer="-4.00" shape="1890.622248,2767.721759 1867.230460,2726.719228 1842.086315,2712.831535 1817.529926,2689.590428 1777.413354,2636.210273 1752.237070,2550.729303 1728.290675,2516.265472 1667.413591,2435.954092 1631.058007,2381.209360 1599.742279,2373.211224 1534.629038,2349.570850 1510.039288,2328.679745 1488.128664,2318.107424 1453.365537,2304.568280 1424.254769,2307.240257 1403.911837,2321.721270 1386.040542,2344.659494 1371.061494,2342.133531 1366.236362,2371.547164 1332.488868,2407.620578 1290.599063,2438.917006 1271.703122,2431.433492 1253.745177,2442.427818 1236.161820,2479.417313 1222.541317,2500.294697 1237.463626,2506.804266 1229.921214,2528.470294 1195.830270,2573.656545 1168.205089,2588.748539 1142.190251,2588.188737 1085.093783,2598.470884 1053.061851,2609.768502 1038.122783,2623.617557 1020.268847,2644.921236 996.603596,2662.646160 971.903303,2669.583685 949.671104,2666.267327 886.708368,2676.478819 855.770858,2675.859336 801.796734,2661.150999 743.701992,2638.667330 707.674974,2594.464306 698.579464,2571.666756 701.965559,2563.516595 711.227450,2553.803251 727.059620,2562.659823 753.506448,2566.728695 783.961974,2549.331847 813.408852,2557.178367 837.987065,2560.066883 854.992276,2569.161159 864.267610,2577.469027 887.266158,2594.129164 900.025039,2605.051767 908.054574,2619.421595 902.979565,2631.524218 877.601366,2636.127493 863.701839,2622.853272 839.964564,2608.744132 812.241641,2594.129123 766.479757,2579.056041 757.831207,2595.789284 765.330836,2615.072046 781.330133,2629.073319 814.391141,2629.017472 833.171544,2626.680213 840.892392,2628.178893 858.460765,2648.288543 879.455849,2656.497676 908.689398,2643.761394 930.700658,2627.195212 945.132251,2616.378158 920.673997,2603.906925 919.001562,2587.512682 927.742632,2582.468220 938.281127,2583.301002 933.206895,2557.737051 943.094400,2554.588030 958.562129,2555.014908 960.996372,2566.510009 968.773467,2582.045531 975.302981,2566.221208 972.785916,2542.325377 943.979009,2539.861925 902.953612,2539.817431 866.176709,2537.255080 850.650229,2541.035233 839.894712,2539.031231 798.979604,2529.628119 779.888220,2537.816448 767.860594,2543.510416 758.077877,2538.246277 748.898195,2522.226211 721.742298,2519.306157 698.321433,2516.911312 668.153556,2511.160343 664.869218,2511.119551 648.433922,2513.019172 635.867896,2505.138420 617.524242,2510.064298 596.599992,2514.713366 574.053676,2517.472455 505.894626,2512.186720 492.740857,2514.361313 453.785462,2516.917911 408.780800,2535.083310 383.721654,2551.848202 353.224695,2591.486563 326.868297,2599.342289 294.534215,2597.774608 277.496773,2591.720847 266.448188,2593.688335 238.460654,2582.112467 219.454222,2583.514537 170.798620,2593.445186 126.096549,2605.996189 113.160372,2609.343331 106.649812,2605.055883 83.081589,2596.340293 49.849239,2591.490968 43.701095,2595.389157 48.260780,2606.208560 59.862840,2615.711974 81.360803,2621.819673 132.958804,2620.350182 169.306406,2619.628591 188.996039,2619.637188 222.269713,2640.405062 199.275290,2641.524347 101.976322,2642.197373 14.025500,2644.857241 -32.426058,2647.092469 -59.161144,2628.755271 -72.422420,2601.456075 -93.800220,2585.511052 -121.926340,2565.754750 -134.775616,2485.812463 -119.782224,2448.329555 -105.592386,2419.262820 -55.656697,2400.451277 -26.547293,2378.346240 13.189032,2388.194521 45.002172,2395.630703 54.747114,2408.650866 108.436541,2423.546638 170.722922,2448.588792 199.406581,2449.954751 217.851169,2464.752024 274.924053,2463.941554 296.456936,2445.952677 306.163284,2420.950318 295.086366,2407.423394 313.598009,2389.898218 325.569419,2385.192936 344.379253,2384.078288 375.914735,2371.912236 395.278112,2380.187867 426.943469,2371.196052 475.105772,2330.596902 506.114356,2319.104240 502.224802,2347.717769 492.317131,2382.812810 491.175861,2396.155586 482.128791,2414.309165 479.677792,2427.312942 472.267469,2436.582196 458.550681,2445.305942 445.202359,2449.537465 411.202781,2443.418117 393.161281,2449.717763 382.582712,2459.693778 363.916733,2476.036895 355.577686,2482.512187 351.336916,2490.507354 348.177847,2503.124010 346.045640,2514.161649 351.995549,2527.870280 355.543587,2528.849075 361.918781,2528.382397 369.245339,2524.343378 374.768023,2521.473077 381.782293,2516.884815 390.560464,2510.314823 415.616054,2507.018132 433.560700,2506.004493 446.920600,2505.880328 455.932401,2504.711773 475.775737,2501.952008 489.757674,2496.058812 524.522383,2482.798487 533.162260,2481.859229 544.218886,2478.267424 579.704169,2480.087513 589.061555,2483.854445 603.991184,2489.849889 627.230150,2494.312283 658.466046,2498.718274 687.038658,2506.976036 705.866054,2506.430853 725.757949,2503.806404 765.644431,2510.424456 785.653250,2517.006883 845.802333,2530.400583 868.418464,2529.079647 901.704017,2534.158540 974.567162,2535.969691 977.344755,2542.515894 988.667240,2551.216921 994.125650,2553.021528 999.283379,2551.349581 1004.388996,2547.339524 1007.466776,2540.877617 1006.074161,2530.653286 1010.621928,2526.224426 1024.316714,2525.839090 1047.347951,2538.860725 1060.727235,2540.185700 1070.553917,2533.908457 1077.176814,2526.656152 1101.766603,2519.628781 1125.248417,2518.642816 1136.142852,2521.539731 1145.409674,2530.493688 1148.267243,2540.124235 1157.050014,2547.257833 1171.436713,2548.573516 1185.028375,2540.941254 1203.671874,2520.638780 1213.442250,2503.909340 1224.004648,2475.925501 1233.627537,2452.515779 1247.251281,2422.923061 1253.554868,2418.215961 1263.101071,2419.370992 1281.989152,2411.048646 1291.321490,2389.883816 1312.710128,2375.782745 1319.023831,2373.268632 1322.043457,2366.004791 1318.257924,2305.773017 1323.048438,2283.571655 1334.645434,2277.907182 1348.899985,2275.370524 1355.004793,2267.588968 1360.025104,2238.578490 1368.271550,2231.168948 1404.513502,2220.750280 1424.095095,2215.086395 1438.721977,2212.320970 1468.860720,2213.034667 1502.903964,2217.226102 1509.429569,2227.704575 1519.528834,2235.144911 1529.437903,2236.828248 1551.565392,2243.630168 1564.982867,2257.356881 1581.807233,2270.347511 1585.650750,2276.662700 1580.351385,2282.072119 1565.425323,2284.755370 1547.905602,2285.213164 1542.086240,2282.746589 1532.724556,2272.900121 1527.717729,2271.991000 1512.450975,2287.793348 1505.410689,2290.843428 1503.138141,2294.410013 1504.373177,2299.679327 1515.368469,2315.935422 1524.705293,2321.796713 1538.983559,2329.278701 1556.977680,2332.366459 1611.727336,2359.627261 1621.135592,2352.889595 1635.520585,2346.960634 1653.064831,2345.535129 1666.457533,2344.847460 1676.512362,2350.317459 1678.504962,2360.972593 1675.722441,2376.153201 1678.821727,2389.838789 1685.235378,2399.715061 1697.419992,2407.950244 1707.594596,2409.381350 1717.808794,2407.685224 1723.680288,2398.109163 1750.686335,2391.149438 1768.066470,2380.940110 1792.333048,2371.931244 1817.365522,2378.515369 1827.416790,2378.820980 1834.118114,2386.218956 1877.988439,2409.716484 1884.949131,2417.373845 1881.160167,2427.499291 1870.717783,2433.366192 1841.194906,2432.067552 1844.645627,2474.219231 1851.775269,2540.526972 1833.552196,2572.819938 1822.054615,2610.106993 1830.891945,2634.539968 1867.293244,2666.591318 1890.483555,2686.542892 1896.419174,2699.006908 1903.177317,2702.376370 1912.143813,2753.024263 1899.075795,2766.660426 1894.847402,2785.785114 1884.707312,2790.576120 1890.055106,2775.428217 1890.622248,2767.721759"/>
    <poly id="1011078316" type="natural" color="140,196,107" fill="1" layer="-4.00" shape="3423.481505,2185.441218 3423.094649,2202.611130 3442.236837,2230.343254 3460.963228,2240.071384 3484.061046,2241.363856 3520.217297,2281.941180 3533.798729,2298.447849 3538.602839,2307.170535 3544.868254,2329.503172 3545.963763,2333.769509 3546.894577,2337.710896 3546.597220,2360.436299 3545.580793,2387.905188 3541.955905,2414.360429 3536.388198,2426.231039 3528.111465,2445.256780 3512.668849,2485.459966 3507.490992,2517.772040 3514.319890,2530.494914 3501.697376,2546.458527 3490.831100,2551.091617 3477.648297,2556.317787 3461.463706,2578.189990 3451.954876,2578.065758 3405.310499,2560.281680 3387.248794,2550.061546 3358.725152,2524.989990 3334.717710,2493.276706 3331.072730,2470.978541 3309.165621,2428.818624 3288.911278,2411.056998 3282.648962,2401.848106 3280.750688,2382.811830 3249.560916,2360.054927 3234.736049,2354.407856 3221.102699,2346.149450 3208.233095,2337.377870 3192.797441,2327.203863 3329.489600,2089.335463 3337.358745,2102.038193 3350.649116,2126.087205 3362.466205,2137.861943 3375.753634,2149.644763 3388.099101,2158.320949 3398.623649,2168.431554 3415.099057,2174.701790 3423.481505,2185.441218"/>
    <poly id="1024492967" type="man_made" color="255,230,230" fill="1" layer="-1.00" shape="1124.548474,154.826846 1156.003916,149.521717 1155.173364,144.357781 1122.687565,143.951078 1123.066127,147.217125 1129.093556,147.314828 1129.555156,150.448345 1124.154479,151.293468 1124.548474,154.826846"/>
    <poly id="1030417826" type="building" color="255,230,230" fill="1" layer="-1.00" shape="980.730969,217.042077 1030.094810,191.300980 1035.091659,153.630203 1017.687235,156.707461 1015.537766,171.417711 1021.505772,172.260283 1020.351352,182.987026 997.080998,195.107166 1002.193724,159.663951 988.114409,162.170661 980.730969,217.042077"/>
    <poly id="1030417827" type="building" color="255,230,230" fill="1" layer="-1.00" shape="909.975934,187.620200 913.403362,187.874414 914.354799,175.330806 930.142374,172.377671 928.328112,190.854329 923.363690,190.358322 922.518105,198.929576 920.654799,198.750511 920.217756,203.175094 954.981938,206.580621 957.383581,182.178617 951.806301,181.630408 952.899836,167.741760 969.021987,164.570326 966.905483,185.180300 969.118895,185.397146 965.656798,220.527073 907.295767,214.801437 909.975934,187.620200"/>
    <poly id="1030608558" type="building" color="255,230,230" fill="1" layer="-1.00" shape="760.191982,223.544298 759.439363,221.642718 761.993601,220.628184 762.746219,222.529766 760.191982,223.544298"/>
    <poly id="1030608559" type="building" color="255,230,230" fill="1" layer="-1.00" shape="760.761700,214.980720 762.447413,219.876937 759.806929,220.779090 758.121213,215.882874 760.761700,214.980720"/>
    <poly id="104790420" type="building" color="255,230,230" fill="1" layer="-1.00" shape="3251.649941,1075.690673 3269.120487,1104.424160 3261.878010,1108.815641 3255.143471,1097.741845 3246.387075,1103.037515 3243.482488,1098.257980 3252.402900,1092.864260 3244.565332,1079.972930 3251.649941,1075.690673"/>
    <poly id="104790421" type="building" color="255,230,230" fill="1" layer="-1.00" shape="3327.919891,1059.564425 3322.261553,1046.122540 3313.947885,1049.609513 3314.706799,1051.411467 3306.625997,1054.801310 3308.532310,1059.334138 3305.322611,1060.683693 3308.649809,1068.574286 3313.061447,1066.728368 3311.106528,1062.083596 3317.972712,1059.201091 3319.593582,1063.062353 3327.919891,1059.564425"/>
    <poly id="104790423" type="building" color="255,230,230" fill="1" layer="-1.00" shape="3298.848558,1109.397095 3308.614830,1103.457961 3312.101669,1109.180118 3317.634670,1105.812752 3314.110868,1100.045586 3316.924815,1098.323563 3312.861757,1091.670036 3307.246809,1095.080864 3306.125229,1093.251926 3300.983403,1096.379522 3302.184598,1098.343066 3294.828274,1102.822057 3298.848558,1109.397095"/>
    <poly id="104790424" type="building" color="255,230,230" fill="1" layer="-1.00" shape="3300.666896,1118.280942 3308.874833,1113.289902 3306.368535,1109.172232 3298.154191,1114.174325 3300.666896,1118.280942"/>
    <poly id="104790429" type="building" color="255,230,230" fill="1" layer="-1.00" shape="3361.581001,1025.486294 3363.922615,1023.991892 3363.303028,1023.026560 3364.552715,1022.230298 3364.828814,1022.656871 3368.956696,1020.017018 3370.379981,1022.228355 3379.696402,1016.250120 3375.168790,1009.223158 3372.303101,1011.066909 3371.707967,1010.146418 3374.257995,1008.510037 3371.675148,1004.502640 3365.962833,1008.168136 3366.189739,1008.527282 3355.200717,1015.574569 3361.581001,1025.486294"/>
    <poly id="104790436" type="building" color="255,230,230" fill="1" layer="-1.00" shape="3269.358817,1139.010855 3275.874931,1135.121952 3276.254663,1135.761354 3280.499836,1133.234255 3279.930311,1132.269586 3283.790714,1129.971230 3279.073832,1122.095958 3268.861159,1128.196309 3263.482586,1119.221618 3256.884383,1123.165127 3263.120531,1133.575721 3265.315659,1132.268585 3269.358817,1139.010855"/>
    <poly id="104790440" type="building" color="255,230,230" fill="1" layer="-1.00" shape="3344.998060,1029.043511 3358.966703,1052.700576 3357.831266,1053.375889 3363.391814,1062.787174 3371.673428,1057.919650 3367.656250,1051.110837 3369.447601,1050.054498 3353.935631,1023.794920 3344.998060,1029.043511"/>
    <poly id="104791803" type="building" color="255,230,230" fill="1" layer="-1.00" shape="3268.773379,1160.908777 3266.253803,1156.367984 3263.410651,1157.933826 3265.936487,1162.474699 3268.773379,1160.908777"/>
    <poly id="104791806" type="building" color="255,230,230" fill="1" layer="-1.00" shape="3195.827365,1134.781965 3193.068627,1128.891274 3187.313035,1131.576921 3190.071779,1137.467608 3195.827365,1134.781965"/>
    <poly id="104791807" type="building" color="255,230,230" fill="1" layer="-1.00" shape="3238.630793,1167.618055 3251.899531,1159.932291 3254.046659,1163.755854 3261.177585,1159.752489 3257.739451,1153.652558 3251.485022,1157.155313 3247.560753,1150.414606 3243.121044,1152.983729 3243.531200,1153.690310 3238.763482,1156.455526 3236.186104,1152.025308 3231.229205,1154.899380 3238.630793,1167.618055"/>
    <poly id="104791809" type="building" color="255,230,230" fill="1" layer="-1.00" shape="3212.375057,1184.919005 3211.799845,1183.909748 3208.041969,1186.031407 3202.559821,1176.354201 3211.052934,1171.555911 3212.160424,1173.507080 3226.586620,1165.368794 3232.356334,1175.550660 3228.837974,1177.541846 3228.018096,1176.095301 3212.375057,1184.919005"/>
    <poly id="104791811" type="building" color="255,230,230" fill="1" layer="-1.00" shape="3212.596274,1194.861741 3220.939175,1190.061518 3218.453931,1185.766079 3210.111024,1190.566307 3212.596274,1194.861741"/>
    <poly id="104791815" type="building" color="255,230,230" fill="1" layer="-1.00" shape="3223.458188,1107.536673 3207.206523,1117.421046 3197.131158,1100.927704 3202.468489,1097.680089 3208.033217,1106.790692 3211.954227,1107.531784 3220.338748,1102.431565 3223.458188,1107.536673"/>
    <poly id="104791818" type="building" color="255,230,230" fill="1" layer="-1.00" shape="3198.596258,1123.520133 3188.441104,1104.977696 3183.133452,1107.869527 3181.562186,1104.999608 3175.788126,1108.141396 3184.934491,1124.845232 3190.588913,1121.757555 3193.175111,1126.477261 3198.596258,1123.520133"/>
    <poly id="105047935" type="parking" color="184,184,179" fill="1" layer="-1.00" shape="1443.944140,645.840541 1468.546712,648.131682 1471.901813,614.347541 1516.430084,618.036493 1522.079831,609.314422 1532.440428,610.235365 1533.572694,596.892719 1527.202001,596.266966 1527.507754,593.365690 1528.294367,585.094317 1534.409033,585.672318 1536.239236,568.609668 1476.129630,563.466407 1476.978481,546.769818 1452.264781,544.310280 1443.944140,645.840541"/>
    <poly id="105047982" type="parking" color="184,184,179" fill="1" layer="-1.00" shape="1587.009997,532.541040 1584.421899,646.810286 1566.736686,646.464620 1567.452423,610.087153 1568.868052,531.644199 1572.422600,531.722452 1587.009997,532.541040"/>
    <poly id="105047993" type="parking" color="184,184,179" fill="1" layer="-1.00" shape="1603.055082,515.579976 1629.232964,525.527621 1626.374364,533.783934 1632.435440,536.131189 1635.616624,528.602457 1651.131084,534.820270 1652.428808,544.075217 1641.716040,548.225174 1615.499077,547.827161 1615.494345,544.732746 1608.948274,544.605544 1608.815674,548.165717 1589.878671,548.271647 1590.061188,533.815076 1591.005238,530.932994 1598.481820,522.311999 1603.055082,515.579976"/>
    <poly id="105048049" type="parking" color="184,184,179" fill="1" layer="-1.00" shape="1581.763008,753.799130 1580.574680,824.130641 1608.905144,824.566299 1609.785156,798.008244 1608.539441,795.042854 1608.863411,754.030027 1581.763008,753.799130"/>
    <poly id="105048070" type="parking" color="184,184,179" fill="1" layer="-1.00" shape="1550.342090,690.680665 1550.250404,704.893507 1513.059452,704.658186 1513.173633,687.162052 1526.780789,687.244587 1526.758021,690.539008 1550.342090,690.680665"/>
    <poly id="105178911" type="building" color="255,230,230" fill="1" layer="-1.00" shape="3012.890421,1426.095522 3008.475929,1431.581490 3002.678057,1426.942723 3007.092546,1421.456749 3012.890421,1426.095522"/>
    <poly id="105178918" type="building" color="255,230,230" fill="1" layer="-1.00" shape="3088.650588,1168.441227 3093.788227,1166.582246 3091.455435,1160.173999 3086.317790,1162.032982 3088.650588,1168.441227"/>
    <poly id="105178920" type="building" color="255,230,230" fill="1" layer="-1.00" shape="2864.902176,1345.652362 2862.309697,1354.479016 2868.170672,1356.190992 2870.763162,1347.364342 2864.902176,1345.652362"/>
    <poly id="105178921" type="building" color="255,230,230" fill="1" layer="-1.00" shape="2920.686360,1312.190776 2916.933159,1302.358210 2910.756915,1304.693720 2910.333130,1303.586285 2903.118911,1306.331355 2903.651738,1307.718470 2897.456592,1310.064886 2897.934684,1311.328854 2893.098102,1313.158562 2894.326960,1316.380135 2883.659929,1320.427426 2886.262944,1327.250895 2890.962758,1331.641556 2900.346739,1328.078579 2897.895151,1321.646640 2902.832424,1319.773716 2902.566155,1319.069029 2920.686360,1312.190776"/>
    <poly id="105178926" type="building" color="255,230,230" fill="1" layer="-1.00" shape="3158.094921,1218.407571 3172.787795,1212.365176 3169.462495,1204.318881 3169.311441,1204.383704 3167.733865,1200.556453 3162.133486,1202.865699 3163.911356,1207.174177 3154.976003,1210.853727 3158.094921,1218.407571"/>
    <poly id="105178929" type="building" color="255,230,230" fill="1" layer="-1.00" shape="2934.358669,1392.710144 2937.916519,1383.773583 2942.044811,1385.407586 2945.557439,1376.581755 2954.486529,1380.114493 2950.980143,1388.940399 2960.755903,1392.818035 2957.197869,1401.765706 2934.358669,1392.710144"/>
    <poly id="105178931" type="building" color="255,230,230" fill="1" layer="-1.00" shape="3142.322457,1226.617644 3144.713002,1232.425606 3148.784171,1230.753197 3149.372672,1232.185590 3151.990351,1231.106504 3149.011170,1223.877274 3142.322457,1226.617644"/>
    <poly id="105178933" type="building" color="255,230,230" fill="1" layer="-1.00" shape="2968.306323,1251.943535 2962.787120,1253.797722 2965.548270,1261.936726 2971.061206,1260.082462 2968.306323,1251.943535"/>
    <poly id="105178936" type="building" color="255,230,230" fill="1" layer="-1.00" shape="3006.442040,1232.056831 3027.166992,1223.687833 3022.163409,1211.345658 3018.677707,1212.758631 3018.168205,1211.505374 3014.531453,1212.983178 3015.046925,1214.258774 3011.926198,1215.520650 3011.386415,1214.189085 3007.353409,1215.817593 3007.911390,1217.193917 3005.061193,1218.347994 3004.491272,1216.926992 3000.892365,1218.383036 3002.166130,1221.516175 3006.442040,1232.056831"/>
    <poly id="105178940" type="building" color="255,230,230" fill="1" layer="-1.00" shape="2995.401711,1318.534116 2987.093733,1321.643328 2989.296267,1327.482159 2997.598122,1324.361741 2995.401711,1318.534116"/>
    <poly id="105178941" type="building" color="255,230,230" fill="1" layer="-1.00" shape="3197.093018,1197.754567 3193.076942,1204.814984 3194.773167,1205.772024 3190.148582,1213.904228 3181.773406,1209.153811 3186.487615,1200.866931 3185.269909,1200.172123 3185.788651,1199.266134 3181.209628,1196.668790 3184.918229,1190.149778 3185.800475,1190.651002 3187.542520,1187.601524 3191.829603,1190.028118 3189.792608,1193.619172 3197.093018,1197.754567"/>
    <poly id="105178944" type="building" color="255,230,230" fill="1" layer="-1.00" shape="3129.973501,1192.897754 3128.002955,1187.518227 3127.215735,1185.482191 3131.228308,1183.987098 3134.010956,1191.414117 3129.973501,1192.897754"/>
    <poly id="105178945" type="building" color="255,230,230" fill="1" layer="-1.00" shape="3115.090071,1314.876845 3113.663686,1310.973660 3109.702018,1312.413773 3111.128263,1316.328086 3115.090071,1314.876845"/>
    <poly id="105178947" type="building" color="255,230,230" fill="1" layer="-1.00" shape="3120.350801,1332.932605 3102.052345,1339.540574 3105.061311,1347.849853 3123.365995,1341.241978 3120.350801,1332.932605"/>
    <poly id="105178948" type="building" color="255,230,230" fill="1" layer="-1.00" shape="2887.566971,1360.482207 2882.028381,1359.008119 2880.476213,1364.820619 2886.008538,1366.294624 2887.566971,1360.482207"/>
    <poly id="105178949" type="building" color="255,230,230" fill="1" layer="-1.00" shape="3029.692294,1345.147058 3043.728391,1340.475948 3040.848206,1331.878982 3036.316131,1333.389683 3035.278901,1332.775172 3034.354506,1332.629620 3033.219427,1332.804131 3031.882141,1333.610481 3031.519976,1334.028760 3031.155558,1335.103729 3026.818342,1336.550181 3029.692294,1345.147058"/>
    <poly id="105178950" type="building" color="255,230,230" fill="1" layer="-1.00" shape="3138.563853,1276.034375 3136.102062,1267.520692 3122.997353,1271.290869 3125.465426,1279.804625 3138.563853,1276.034375"/>
    <poly id="105178951" type="building" color="255,230,230" fill="1" layer="-1.00" shape="3046.954799,1380.778087 3045.833462,1377.479946 3042.426437,1378.626778 3043.541519,1381.924837 3046.954799,1380.778087"/>
    <poly id="105178952" type="building" color="255,230,230" fill="1" layer="-1.00" shape="2849.458700,1372.077802 2852.450424,1366.740255 2852.288291,1364.756869 2853.563166,1362.480387 2855.046421,1361.998663 2858.083112,1356.572654 2867.901034,1362.042334 2867.708849,1362.384906 2879.397034,1368.902822 2875.559431,1375.765474 2873.565863,1374.570968 2870.840450,1373.344742 2868.350881,1372.756024 2865.743856,1372.054481 2863.608665,1371.648439 2860.059438,1377.991681 2849.458700,1372.077802"/>
    <poly id="105178953" type="building" color="255,230,230" fill="1" layer="-1.00" shape="2987.356770,1318.730451 2994.381854,1316.094380 2994.884228,1317.414327 3004.104333,1313.949629 2997.412170,1296.198272 2988.198290,1299.663067 2991.617252,1308.712208 2984.573241,1311.359169 2987.356770,1318.730451"/>
    <poly id="105178954" type="building" color="255,230,230" fill="1" layer="-1.00" shape="3111.042128,1196.625716 3115.205161,1195.110300 3115.634298,1196.284610 3119.136941,1195.016635 3118.623230,1193.607479 3122.195145,1192.307013 3123.301316,1195.326705 3129.973501,1192.897754 3128.002955,1187.518227 3121.676531,1189.829230 3118.841730,1182.078747 3117.602871,1182.530162 3116.883615,1180.561794 3107.576536,1183.947215 3108.283714,1185.882031 3107.252376,1186.258226 3111.042128,1196.625716"/>
    <poly id="105178955" type="building" color="255,230,230" fill="1" layer="-1.00" shape="3062.605084,1373.245077 3066.881773,1372.120671 3065.306711,1366.167496 3061.023759,1367.291822 3062.605084,1373.245077"/>
    <poly id="105178956" type="building" color="255,230,230" fill="1" layer="-1.00" shape="2883.050884,1357.373971 2898.464119,1361.379999 2900.828160,1352.316664 2895.837928,1351.027743 2894.961012,1349.146422 2892.546954,1348.525274 2890.812882,1349.526892 2885.467257,1348.133211 2883.050884,1357.373971"/>
    <poly id="105178957" type="building" color="255,230,230" fill="1" layer="-1.00" shape="2933.021382,1247.435237 2939.522113,1261.143510 2937.708517,1261.999380 2938.013050,1262.648910 2929.820374,1266.516622 2930.100741,1267.099054 2927.059123,1268.540106 2925.895289,1266.098525 2924.308415,1266.846025 2923.120556,1264.326217 2924.266656,1263.784501 2920.214978,1255.250382 2920.794287,1254.979604 2920.111993,1253.534899 2933.021382,1247.435237"/>
    <poly id="105178958" type="building" color="255,230,230" fill="1" layer="-1.00" shape="3071.323677,1175.373605 3068.907052,1169.153507 3062.874465,1171.490668 3065.291097,1177.710763 3071.323677,1175.373605"/>
    <poly id="105178960" type="building" color="255,230,230" fill="1" layer="-1.00" shape="2923.720497,1279.394018 2919.747639,1281.702366 2917.225040,1277.373228 2913.308935,1279.648924 2915.764285,1283.854750 2911.719517,1284.948913 2910.201006,1282.346916 2902.930066,1286.571656 2900.284891,1282.040588 2901.218222,1281.496114 2899.736531,1278.950252 2899.175280,1279.276920 2895.985249,1273.803818 2902.543471,1270.003954 2903.951799,1272.415298 2911.638938,1267.951064 2911.075608,1266.986525 2914.316968,1265.102811 2918.253866,1271.865634 2919.061041,1271.397449 2923.720497,1279.394018"/>
    <poly id="105178961" type="building" color="255,230,230" fill="1" layer="-1.00" shape="3131.929452,1229.287665 3147.830391,1222.748852 3144.353523,1214.322160 3128.446157,1220.872033 3131.929452,1229.287665"/>
    <poly id="105178962" type="building" color="255,230,230" fill="1" layer="-1.00" shape="3115.065045,1352.966322 3114.254061,1353.245198 3114.712302,1354.586849 3109.532082,1356.367332 3109.067727,1355.014471 3108.099583,1355.346962 3106.567791,1350.885868 3113.533404,1348.494097 3115.065045,1352.966322"/>
    <poly id="105178963" type="building" color="255,230,230" fill="1" layer="-1.00" shape="3154.642716,1217.238511 3151.529760,1209.707009 3146.118292,1211.929682 3149.231255,1219.461181 3154.642716,1217.238511"/>
    <poly id="105178964" type="building" color="255,230,230" fill="1" layer="-1.00" shape="2922.961279,1310.506053 2925.557261,1317.385109 2932.689263,1314.705798 2930.099548,1307.826819 2922.961279,1310.506053"/>
    <poly id="105178965" type="building" color="255,230,230" fill="1" layer="-1.00" shape="3044.036677,1212.898079 3065.854022,1204.766041 3068.170794,1210.962581 3074.818470,1208.488705 3072.483654,1202.236273 3068.427026,1203.753110 3065.571779,1196.124837 3041.163342,1205.213934 3044.036677,1212.898079"/>
    <poly id="105178966" type="building" color="255,230,230" fill="1" layer="-1.00" shape="3180.637070,1230.131848 3176.151667,1218.887046 3170.747467,1221.031867 3169.868287,1218.849926 3159.443646,1222.988744 3161.934913,1229.232127 3171.755761,1225.319219 3174.628811,1232.524824 3180.637070,1230.131848"/>
    <poly id="105178968" type="building" color="255,230,230" fill="1" layer="-1.00" shape="2868.916953,1311.521413 2871.238754,1312.987299 2870.932059,1313.473093 2877.692388,1317.756800 2886.674623,1303.636556 2877.592475,1297.886944 2868.916953,1311.521413"/>
    <poly id="105178969" type="building" color="255,230,230" fill="1" layer="-1.00" shape="3152.809639,1154.536833 3156.137685,1153.222096 3156.355885,1153.770342 3161.967682,1151.550283 3163.191724,1154.649432 3168.180525,1152.688428 3166.938436,1149.533388 3172.468313,1147.356801 3172.189561,1146.651935 3175.542795,1145.326410 3172.979437,1138.848335 3169.462626,1140.238523 3168.299139,1137.295991 3162.957855,1139.408248 3163.157859,1139.911735 3157.848159,1142.002147 3157.654268,1141.509870 3152.243868,1143.643505 3153.413478,1146.597243 3150.173616,1147.868604 3152.809639,1154.536833"/>
    <poly id="105178970" type="building" color="255,230,230" fill="1" layer="-1.00" shape="2940.870364,1334.457609 2936.189535,1339.728718 2945.570476,1348.009026 2946.783534,1346.644499 2952.847689,1351.999009 2951.723389,1353.275636 2957.168686,1358.087861 2960.509581,1354.313225 2963.089887,1356.595060 2964.540962,1354.732732 2965.458991,1352.952549 2965.927546,1351.567259 2966.185217,1350.034537 2966.152302,1348.709539 2966.279409,1348.076726 2964.627220,1346.619457 2965.046416,1346.146257 2960.591233,1342.203914 2958.666803,1344.371781 2950.269890,1336.950125 2949.514001,1337.808548 2944.928682,1333.764361 2942.807247,1336.163432 2940.870364,1334.457609"/>
    <poly id="105178971" type="building" color="255,230,230" fill="1" layer="-1.00" shape="3075.983641,1432.768342 3085.795095,1429.055481 3087.332365,1433.093667 3094.634391,1430.327783 3092.758405,1425.383600 3090.934352,1426.083437 3087.055145,1415.870629 3082.979503,1417.420595 3081.830964,1416.704451 3077.988152,1418.157264 3077.907531,1419.547576 3075.398092,1420.494539 3076.390537,1423.112034 3072.824504,1424.457134 3075.983641,1432.768342"/>
    <poly id="105178973" type="building" color="255,230,230" fill="1" layer="-1.00" shape="3030.378600,1231.832717 3028.352839,1226.842102 3023.476829,1228.804726 3025.502450,1233.806468 3030.378600,1231.832717"/>
    <poly id="105178975" type="building" color="255,230,230" fill="1" layer="-1.00" shape="2916.580577,1259.455356 2913.537071,1253.783781 2917.400402,1251.718889 2920.443905,1257.390466 2916.580577,1259.455356"/>