<?xml version="1.0" encoding="UTF-8"?>

<!-- generated on 2023-10-31 12:04:58.289463 by randomTrips.py v1_18_0+0000-03ecfdea036
<configuration>
    <net-file value="horsens/horsens.net.xml"/>
    <route-file value="horsens/horsens.rou.xml"/>
    <length value="True"/>
    <end value="1000.0"/>
</configuration>
-->

<!-- generated on 2023-10-31 12:04:58 by Eclipse SUMO duarouter Version 1.18.0
<configuration xmlns:xsi="http://www.w3.org/2001/XMLSchema-instance" xsi:noNamespaceSchemaLocation="http://sumo.dlr.de/xsd/duarouterConfiguration.xsd">

    <input>
        <net-file value="horsens/horsens.net.xml"/>
        <route-files value="trips.trips.xml"/>
    </input>

    <output>
        <output-file value="horsens/horsens.rou.xml"/>
        <alternatives-output value="NUL"/>
    </output>

    <time>
        <begin value="0"/>
        <end value="1000.0"/>
    </time>

    <report>
        <no-warnings value="true"/>
        <ignore-errors value="true"/>
        <no-step-log value="true"/>
    </report>

</configuration>
-->

<routes xmlns:xsi="http://www.w3.org/2001/XMLSchema-instance" xsi:noNamespaceSchemaLocation="http://sumo.dlr.de/xsd/routes_file.xsd">
    <vehicle id="0" depart="0.00">
        <route edges="34210739#3 34210739#4 34210739#5 34210739#6 34210739#7 31651985#2 -24858405#13 -24858405#12 -24858405#11 -24858405#10"/>
    </vehicle>
    <vehicle id="1" depart="1.00">
        <route edges="-39653444#0 -39653443#4 -39653443#3 -39653443#2 -39653443#1 -39653443#0 -92004645#8 -92004645#7 -37681509#1 -37681509#0 122423293#13 122423293#14 122423293#15 122423293#16 122423293#17 122423293#18 122423293#19 122423293#20 122423293#21 122423293#22 39653414#0 -861118976#1 -39653409"/>
    </vehicle>
    <vehicle id="2" depart="2.00">
        <route edges="39653418#1 -122423293#28 -122423293#27 -122423293#26 -122423293#25 -122423293#24 -122423293#23 -122423293#22 -122423293#21 -122423293#20 -122423293#19 -122423293#18 -122423293#17 -122423293#16 -122423293#15 -122423293#14 -122423293#13 -122423293#12 -122423293#11 -122423293#10 -122423293#9 -122423293#8 -122423293#7 -122423293#6 -122423293#5 -122423293#4 -122423293#3 -122423293#2 -122423293#1 -122423293#0 30809462 40040195#0 40040195#1 40040195#2 40040195#3 40040195#4 40040195#5 1020369338#0 1020369338#1 779669377 -1020369337 -33004131#6 -33004131#5 -33004131#4 -33004131#3 -33004131#2 -33004131#1 -33004131#0 34387714#1"/>
    </vehicle>
    <vehicle id="3" depart="3.00">
        <route edges="88404721#9 -88404721#9 -88404721#8 -88404721#7 -88404721#6 -88404721#5 -88404721#4 -88404721#3 -88404721#2 -88404721#1 -88404721#0 39654089#0 37202435#0 -31651987#1 -31651987#0 122423293#18 122423293#19 122423293#20 122423293#21 122423293#22 122423293#23 122423293#24 122423293#25 122423293#26 122423293#27 122423293#28 122423293#29 122423293#30 122423293#31 122423293#32 122423293#33 122423293#34 122423293#35 122423293#36 122423293#37 122423293#38 334669509#0 334669509#1 122423292 -38137015#2 -38137015#1 -37405045#1 -37405045#0 -31651985#0"/>
    </vehicle>
    <vehicle id="4" depart="4.00">
        <route edges="-88448830#1 -88448830#0 -88448700#0 -88448708#0 -88453419#1 -88453419#0 -88453421#2 -88453421#1 -88453421#0 -779669372 -779669376#2 -779669376#1 -779669376#0 -34210743#1 -34210743#0 397336437#0 397336437#1 -334669514 334669517#0 334669517#1 334669517#2 334669517#3 334669510#0 334669510#1 334669512 -34387709 -24858405#15 -24858405#14"/>
    </vehicle>
    <vehicle id="5" depart="5.00">
        <route edges="-39653406#0 -88404721#2 -88404721#1 -88404721#0 -30847142#1 -30847142#0 88453424#0 88453424#1 88453424#2 88453424#3 88453424#4 88453424#5 88448875#0 88448875#1 88448875#2 88448875#3 88448875#4 88448875#5 88448875#6 88448875#7 88448875#8 88448875#9 88448875#10 88448875#11 88448875#12 88448875#13 88448875#14 105317957 105317949"/>
    </vehicle>
    <vehicle id="6" depart="6.00">
        <route edges="-24858405#14 -24858405#13 -24858405#12 -24858405#11 -24858405#10 -24858405#9 -24858405#8 -24858405#7 -24858405#6 -24858405#5 -24858405#4 -24858405#3 -24858405#2 -24858405#1 -24858405#0 -700785352#3 -700785352#2 -700785352#1 -700785352#0 -92004645#17 -92004645#16 -92004645#15 -92004645#14 -92004645#13 -92004645#12 -92004645#11 -92004645#10 -92004645#9 -92004645#8 -92004645#7 -92004645#6 -92004645#5 -92004645#4 -92004645#3 -92004645#2 -92004645#1 -92004645#0 -40040196#2 -40040196#1 -40040196#0 37909056#0 -37909056#0"/>
    </vehicle>
    <vehicle id="7" depart="7.00">
        <route edges="34211701 32505100#4 32505100#5 32505100#6 92731453 122423293#0 122423293#1 122423293#2 122423293#3 122423293#4 122423293#5 122423293#6 122423293#7 122423293#8 122423293#9 122423293#10 122423293#11 122423293#12 122423293#13 122423293#14 122423293#15 122423293#16 122423293#17 122423293#18 122423293#19 122423293#20 122423293#21 122423293#22 122423293#23 122423293#24 122423293#25 122423293#26 122423293#27 122423293#28 122423293#29 122423293#30 122423293#31 122423293#32 122423293#33 122423293#34 122423293#35 122423293#36 122423293#37 122423293#38 334669509#0 334669509#1 334669513#0 334669513#1 334669513#2 52525591#0 52525591#1 334669515#0 334669515#1 334669515#2 334669515#3 334669515#4 334669507#0 334669507#1 397336437#0 397336437#1 -334669514 334669517#0 334669517#1 334669517#2 334669517#3 334669510#0 334669510#1 334669512 24858406 334669503 913071908 913071907 334669506#0 334669506#1 334669501 334669502 52525593#0 26710902#0 26710902#1"/>
    </vehicle>
    <vehicle id="8" depart="8.00">
        <route edges="-39653406#0 -88404721#2 -88404721#1 -88404721#0 39654089#0 37202435#0 -31651987#1 -31651987#0 122423293#18 122423293#19 122423293#20 122423293#21 122423293#22 122423293#23 122423293#24 122423293#25 122423293#26 122423293#27 122423293#28 122423293#29 122423293#30 122423293#31 122423293#32 122423293#33 122423293#34 122423293#35 122423293#36 122423293#37 122423293#38 334669509#0 334669509#1 334669513#0 334669513#1 334669513#2 52525591#0 52525591#1 334669515#0 334669515#1 334669515#2 334669515#3 334669515#4 334669507#0 334669507#1 397336437#0 397336437#1 -334669514 334669517#0 334669517#1 334669517#2 334669517#3 334669510#0 334669510#1 334669512 24858406 334669503 913071908 913071907 334669506#0 334669506#1 334669501 334669502 52525593#0 26710902#0 30966936#0 30966936#1 30966936#2 30966937#1"/>
    </vehicle>
    <vehicle id="9" depart="9.00">
        <route edges="40991864#2 40991864#3 40991864#4 40991864#5 40991864#6 -122423293#8 -122423293#7 -122423293#6 -122423293#5 -122423293#4 -122423293#3 -122423293#2 -122423293#1 -122423293#0"/>
    </vehicle>
    <vehicle id="10" depart="10.00">
        <route edges="40991862#1 40991862#2 40991862#3 40991862#4 -40991862#4 -40991862#3 -40991862#2 -40991862#1 739765770#0 739765770#1 739765770#2 33004131#4 33004131#5 33004131#6 1020369337 1020369340#0 1020369340#1 779669379 29480659 40040196#0 40040196#1 40040196#2 92004645#0 92004645#1 92004645#2 92004645#3 92004645#4 37681508#0 37681508#1"/>
    </vehicle>
    <vehicle id="11" depart="11.00">
        <route edges="-779669375#5 -779669375#4 -779669375#3 -779669375#2 -779669375#1 -779669375#0 -88453420#14 -88453420#13 -88453420#12 -88453420#11 -88453420#10 -88453420#9 -88453420#8 -88453420#7 -88453420#6 -88453420#5 -88453420#4 -88453420#3 -88453420#2 -88453420#1 -88453420#0 -334669513#2 -334669513#1 -334669513#0 -334669509#1 -334669509#0 -122423293#38 -122423293#37 -122423293#36 122423293#36 122423293#37 122423293#38 334669509#0 334669509#1 122423292 -38137015#2 -38137015#1 -38137015#0 34210739#5 34210739#6 34210739#7 -34210739#7 -34210739#6"/>
    </vehicle>
    <vehicle id="12" depart="12.00">
        <route edges="88453419#0 88453419#1 -88453419#1 -88453419#0 -88453421#2 -88453421#1 -88453421#0 -779669372 -779669376#2 -779669376#1 -779669376#0 -34210743#1 -34210743#0 397336437#0 397336437#1 -334669514 334669517#0 334669517#1 334669517#2 334669517#3 334669510#0 334669510#1 334669512 24858406 334669503 913071908 913071907 334669506#0 334669506#1 334669501 334669502 52525593#0 52525593#1 26715996#0 -26715996#0 -52525593#1"/>
    </vehicle>
    <vehicle id="13" depart="13.00">
        <route edges="-31651983#0 -31651984#2 -31651984#1 -31651984#0 -31651985#2 -34210739#7 -34210739#6 -34210739#5 -34210739#4 -34210739#3 -34210739#2 -34210739#1 39653437 -122423293#35 -122423293#34 -122423293#33 -122423293#32 -122423293#31 -122423293#30 -122423293#29 -122423293#28 -122423293#27 -122423293#26 -122423293#25 -122423293#24 -122423293#23 -122423293#22 -122423293#21 -122423293#20 -122423293#19 -122423293#18 31651987#0 31651987#1 31651987#2 31651987#3 -31651987#3 -31651987#2"/>
    </vehicle>
    <vehicle id="14" depart="14.00">
        <route edges="779669374#9 779669374#10 779669374#11 779669374#12 779669374#13 779669382#0 779669382#1 -88453420#14 -88453420#13 -88453420#12 -88453420#11 -88453420#10 -88453420#9 -88453420#8 -88453420#7 -88453420#6 -88453420#5 -88453420#4 -88453420#3 -88453420#2 -88453420#1 -88453420#0 -334669513#2 -334669513#1 -334669513#0 -334669509#1 -334669509#0 -122423293#38 -122423293#37 -122423293#36 122423293#36 122423293#37 122423293#38 334669509#0 334669509#1 122423292 -38137015#2 -38137015#1 -37405045#1 -37405045#0 -31651985#0 31651985#0"/>
    </vehicle>
    <vehicle id="15" depart="15.00">
        <route edges="40991862#2 40991862#3 40991862#4 -40991862#4 -40991862#3 -40991862#2 -40991862#1 739765770#0 739765770#1 739765770#2 33004131#4 33004131#5 33004131#6 1020369337 -779669377 -1020369338#1 -1020369338#0 -40040195#5 -40040195#4 -40040195#3 -40040195#2 -40040195#1 -40040195#0 -30809462 122423293#0 122423293#1 122423293#2 122423293#3 122423293#4 122423293#5 122423293#6 122423293#7 122423293#8 122423293#9 122423293#10 122423293#11 -31651992#2 -31651992#1 -31651992#0 88404721#2 39653406#0 39653406#1"/>
    </vehicle>
    <vehicle id="16" depart="16.00">
        <route edges="26715996#10 26715996#11 26715996#12 26715996#13 26715996#14 -334669502 -334669501 -334669506#1 -334669506#0 -913071907 -913071908 -334669503 -24858406 -334669512 -334669510#1 -334669510#0 -334669517#3 -334669517#2 -334669517#1 -334669517#0 334669514 -397336437#1 -397336437#0 -334669507#1 -334669507#0 -334669515#4 -334669515#3 -334669515#2 -334669515#1 -334669515#0 -52525591#1 -52525591#0 88453420#0 88453420#1 88453420#2 88453420#3 88453420#4 88453420#5 88453420#6 88453420#7 88453420#8 88453420#9 88453420#10 88453420#11 88453420#12 88453420#13 88453420#14 779669375#0 779669375#1 779669375#2 779669375#3 779669375#4 779669375#5 779669375#6 779669375#7 779669375#8 88453424#0 88453424#1 88453424#2 88453424#3 88453424#4 88453424#5 88453424#6 88453424#7 88453424#8 88453424#9 88453424#10 88453424#11 88453424#12 88453424#13 88453424#14 88453424#15"/>
    </vehicle>
    <vehicle id="17" depart="17.00">
        <route edges="-88404781#1 -88404781#0 -88448753#5 -88448753#4 -88448753#3 -88448753#2 -88448753#1 -88448753#0 -88448796#1 -88448796#0 779669374#8 779669374#9 779669374#10 779669374#11 779669374#12 779669374#13 779669382#0 779669382#1 -88453420#14 -88453420#13 -88453420#12 -88453420#11 -88453420#10 -88453420#9 -88453420#8 -88453420#7 -88453420#6 -88453420#5 -88453420#4 -88453420#3 -88453420#2 -88453420#1 -88453420#0 52525591#0 52525591#1 334669515#0 334669515#1 334669515#2 334669515#3 334669515#4 334669507#0 334669507#1 397336437#0 397336437#1 -334669514 334669517#0 334669517#1 334669517#2 334669517#3 334669510#0 334669510#1 334669512 24858406 334669503 913071908 913071907 334669506#0 334669506#1 334669501 334669502 52525593#0 26710902#0 26710902#1 26710902#2 26710902#3 26710902#4 26710902#5 26710902#6"/>
    </vehicle>
    <vehicle id="18" depart="18.00">
        <route edges="52525593#1 26715996#0 -26715996#0 -52525593#1 -52525593#0 -334669502 -334669501 -334669506#1 -334669506#0 -913071907 -913071908 -334669503 -24858406 -334669512 -334669510#1 -334669510#0 -334669517#3 -334669517#2 -334669517#1 -334669517#0 334669514 -397336437#1 -397336437#0 -334669507#1 -334669507#0 -334669515#4 -334669515#3 -334669515#2 -334669515#1 -334669515#0 -52525591#1 -52525591#0 -334669513#2 -334669513#1 -334669513#0 -334669509#1 -334669509#0 -122423293#38 -122423293#37 -122423293#36 -122423293#35 -122423293#34 -122423293#33 -122423293#32 -122423293#31 -122423293#30 -122423293#29 -122423293#28 -122423293#27 -122423293#26 -122423293#25 -122423293#24 -122423293#23 -122423293#22 -122423293#21 -122423293#20 -122423293#19 -122423293#18 31651987#0 31651987#1 -37202435#0 -39654089#0 88404721#0 -31651991 31651991"/>
    </vehicle>
    <vehicle id="19" depart="19.00">
        <route edges="861118976#1 -39653414#0 -122423293#22 -122423293#21 -122423293#20 -122423293#19 -122423293#18 -122423293#17 -122423293#16 -122423293#15 -122423293#14 -122423293#13 -122423293#12 -122423293#11 -122423293#10 -122423293#9 -122423293#8 -122423293#7 -122423293#6 -122423293#5 -122423293#4 -122423293#3 -122423293#2 -122423293#1 -122423293#0 30809462 30847141"/>
    </vehicle>
    <vehicle id="20" depart="20.00">
        <route edges="39653402#0 39653402#1 -88404721#8 -88404721#7 -88404721#6 -88404721#5 -88404721#4 -88404721#3 -88404721#2 -88404721#1 -88404721#0 39654089#0 37202435#0 -31651987#1 -31651987#0 122423293#18 122423293#19 122423293#20 122423293#21 122423293#22 122423293#23 122423293#24 122423293#25 122423293#26 122423293#27 122423293#28 122423293#29 122423293#30 122423293#31 122423293#32 122423293#33 122423293#34 122423293#35 122423293#36 122423293#37 122423293#38 334669509#0 334669509#1 334669513#0 334669513#1 334669513#2 52525591#0 52525591#1 334669515#0 334669515#1 334669515#2 334669515#3 334669515#4 334669507#0 334669507#1 397336437#0 397336437#1 -334669514 334669517#0 334669517#1 334669517#2 334669517#3 334669510#0 334669510#1 334669512 24858406 334669503 913071908 913071907 334669506#0 334669506#1 334669501 334669502 52525593#0 26710902#0 26710902#1 26710902#2 26710902#3 -26710902#3"/>
    </vehicle>
    <vehicle id="21" depart="21.00">
        <route edges="-39653414#0 -122423293#22 -122423293#21 -122423293#20 -122423293#19 -122423293#18 -122423293#17 -122423293#16 -122423293#15 -122423293#14 -39653445"/>
    </vehicle>
    <vehicle id="22" depart="22.00">
        <route edges="-30966936#1 -30966936#0 -26710902#0 -52525593#0 -334669502 -334669501 -334669506#1 -334669506#0 -913071907 -913071908 -334669503 -24858406 -334669512 -334669510#1 -334669510#0 -334669517#3 -334669517#2 -334669517#1 -334669517#0 334669514 -397336437#1 -397336437#0 -334669507#1 -334669507#0 -334669515#4 -334669515#3 -334669515#2 -334669515#1 -334669515#0 -52525591#1 -52525591#0 -334669513#2 -334669513#1 -334669513#0 -334669509#1 -334669509#0 -122423293#38 -122423293#37 -122423293#36 -122423293#35 -122423293#34 -122423293#33 -122423293#32 -122423293#31 -122423293#30 -122423293#29 -122423293#28 -122423293#27 -122423293#26 -122423293#25 39653416#0 39653416#1 -39653416#1"/>
    </vehicle>
    <vehicle id="23" depart="23.00">
        <route edges="-31651985#1 31651985#1 31651985#2 -24858405#13 -24858405#12 -24858405#11 -24858405#10 -24858405#9 -24858405#8 -24858405#7 -24858405#6 -24858405#5 -24858405#4 -24858405#3 -24858405#2 -24858405#1 -24858405#0 -700785352#3 39653441#0 39653441#1 39653441#2 -40983752#5 -40983752#4 -40983752#3 -40983752#2 -40983752#1 -40983752#0 40983752#0 40983752#1 40983752#2 40983752#3 40983752#4 40983752#5 -39653441#2 -39653441#1"/>
    </vehicle>
    <vehicle id="24" depart="24.00">
        <route edges="34210738#1 -122423293#33 -122423293#32 -122423293#31 -122423293#30 -122423293#29 -122423293#28 -122423293#27 -122423293#26 -122423293#25 -122423293#24 -122423293#23 39653414#0 -861118976#1 -861118976#0"/>
    </vehicle>
    <vehicle id="25" depart="25.00">
        <route edges="-88404721#11 -39653401"/>
    </vehicle>
    <vehicle id="26" depart="26.00">
        <route edges="-39653439 -34210739#1 39653437 122423293#36 122423293#37 122423293#38 334669509#0 334669509#1 334669513#0 334669513#1 334669513#2 52525591#0 52525591#1 334669515#0 334669515#1 334669515#2 334669515#3 334669515#4 334669507#0 334669507#1 34210743#0 34210743#1 779669376#0 779669376#1 779669376#2 779669372 88453421#0 88453421#1 88453421#2 88453419#0 88453419#1 88448708#0 88448700#0 88448830#0 88448830#1 88448830#2"/>
    </vehicle>
    <vehicle id="27" depart="27.00">
        <route edges="34210747#0 34210747#1 111266556#0 111266556#1 111266559 122423293#7 122423293#8 122423293#9 122423293#10 122423293#11 122423293#12 122423293#13 122423293#14 122423293#15 122423293#16 122423293#17 122423293#18 122423293#19 122423293#20 122423293#21 122423293#22 122423293#23 122423293#24 122423293#25 122423293#26 122423293#27 122423293#28 122423293#29 31651986#0 31651986#1 31651986#2"/>
    </vehicle>
    <vehicle id="28" depart="28.00">
        <route edges="-37202434#0 37202434#0 -37202435#1 -37202435#0 -39654089#0 88404721#0 88404721#1 88404721#2 39653406#0 39653406#1"/>
    </vehicle>
    <vehicle id="29" depart="29.00">
        <route edges="-34210743#1 -34210743#0 397336437#0 397336437#1 -334669514 334669517#0 334669517#1 334669517#2 334669517#3 334669510#0 334669510#1 334669512 24858406 334669503 913071908 913071907 334669506#0 334669506#1 334669501 334669502 -26715996#14 -26715996#13 -26715996#12 -26715996#11 -87471939"/>
    </vehicle>
    <vehicle id="30" depart="30.00">
        <route edges="92005137#10 92005137#11 92005137#12 92005137#13 92005137#14 92005137#15 92005137#16 92004645#8 92004645#9 92004645#10 92004645#11 92004645#12 92004645#13 92004645#14 92004645#15 92004645#16 92004645#17 700785352#0 700785352#1 700785352#2 700785352#3 24858405#0 24858405#1 24858405#2 24858405#3 24858405#4 24858405#5 24858405#6 24858405#7 24858405#8 24858405#9 24858405#10 24858405#11 33004133"/>
    </vehicle>
    <vehicle id="31" depart="31.00">
        <route edges="30966936#1 -30966936#1 -30966936#0 -26710902#0 -52525593#0 -334669502 -334669501 -334669506#1 -334669506#0 -913071907 -913071908 -334669503 -24858406 -334669512 -334669510#1 -334669510#0 -334669517#3 -334669517#2 -334669517#1 -334669517#0 334669514 -397336437#1 -397336437#0 -334669507#1 -334669507#0 -334669515#4 -334669515#3 -334669515#2 -334669515#1 -334669515#0 -52525591#1 -52525591#0 -334669513#2 -334669513#1 -334669513#0 -334669509#1 -334669509#0 -122423293#38 -122423293#37 -122423293#36 -122423293#35 -122423293#34 -122423293#33 -122423293#32 -122423293#31 -122423293#30 -122423293#29 -122423293#28 -122423293#27 -122423293#26 -122423293#25 -122423293#24 -122423293#23 -122423293#22 -122423293#21 -122423293#20 -122423293#19 -122423293#18 31651987#0 31651987#1 37202435#1"/>
    </vehicle>
    <vehicle id="32" depart="32.00">
        <route edges="779669374#2 779669374#3 779669374#4 779669374#5 779669374#6 779669374#7 779669374#8 779669374#9 779669374#10 779669374#11 779669374#12 779669374#13 779669382#0 779669382#1 -88453420#14 -88453420#13 -88453420#12 -88453420#11 -88453420#10 -88453420#9 -88453420#8 -88453420#7 -88453420#6 -88453420#5 -88453420#4 -88453420#3 -88453420#2 -88453420#1 -88453420#0 -334669513#2 -334669513#1 -334669513#0 -334669509#1 -334669509#0 -122423293#38 -122423293#37 -122423293#36 -39653437 34210739#1 39653439"/>
    </vehicle>
    <vehicle id="33" depart="33.00">
        <route edges="-39653414#0 122423293#23 122423293#24 122423293#25 122423293#26 122423293#27 122423293#28 122423293#29 122423293#30 122423293#31 122423293#32 122423293#33 122423293#34 122423293#35 122423293#36 122423293#37 122423293#38 334669509#0 334669509#1 122423292 -38137015#2 -38137015#1 -38137015#0 34210739#5 34210739#6 34210739#7 31651985#2 -24858405#13 -24858405#12 -24858405#11 -24858405#10 -24858405#9 -24858405#8 -24858405#7 -24858405#6 -24858405#5 -24858405#4 -24858405#3"/>
    </vehicle>
    <vehicle id="34" depart="34.00">
        <route edges="-52525593#0 -334669502 -334669501 -334669506#1 -334669506#0 -913071907 -913071908 -334669503 -24858406 -34387709 -24858405#15 -24858405#14 -31651985#2 -34210739#7 -34210739#6 -39653434#1"/>
    </vehicle>
    <vehicle id="35" depart="35.00">
        <route edges="-39653401 39653401 -88404721#10 -88404721#9 -88404721#8 -88404721#7 -88404721#6 -88404721#5 -88404721#4 -88404721#3 -88404721#2 -88404721#1 -88404721#0 -30847142#1 -30847142#0 88453424#0 88453424#1 88453424#2 88453424#3 88453424#4 88453424#5 88448875#0 88448875#1 88448875#2 88448875#3 88448875#4 88448875#5 88448875#6 88448875#7 88448875#8 88448875#9 88448875#10 88448875#11"/>
    </vehicle>
    <vehicle id="36" depart="36.00">
        <route edges="87471940#1 -87471940#1 -87471940#0 26715996#3 26715996#4 26715996#5 26715996#6 26715996#7 26715996#8 26715996#9 26715996#10 26715996#11 26715996#12 26715996#13 26715996#14 -334669502 -334669501 -334669506#1 -334669506#0 -913071907 -913071908 -334669503 -24858406 -34387709 -24858405#15 -24858405#14 -24858405#13 -24858405#12 -24858405#11 -24858405#10 -24858405#9 -24858405#8 -24858405#7 -24858405#6 -24858405#5 -24858405#4 -24858405#3 -24858405#2 -24858405#1 -24858405#0 -700785352#3 -700785352#2 -700785352#1 -700785352#0 -92004645#17 -92004645#16 -92004645#15 -92004645#14 -92004645#13 -92004645#12 -92004645#11 -92004645#10 -92004645#9 -92004645#8 -92004645#7 -92004645#6 -92004645#5 -92004645#4 -92004645#3 -92004645#2 -92004645#1 -92004645#0 -40040196#2 -40040196#1 -40040196#0 -29480659 29461967#0 29461967#1 1020369341 779669377 -1020369337 -33004131#6 -33004131#5 -33004131#4 -739765770#2 -739765770#1 -739765770#0 40991862#1 40991862#2 40991862#3 40991862#4 -40991862#4 -40991862#3 -40991862#2"/>
    </vehicle>
    <vehicle id="37" depart="37.00">
        <route edges="34211708 34211707#1 -334669501 -334669506#1 -334669506#0 -913071907 -913071908 -334669503 -24858406 -334669512 -334669510#1 -334669510#0 -334669517#3 -334669517#2 -334669517#1 -334669517#0 334669514 -397336437#1 -397336437#0 -334669507#1 -334669507#0 -334669515#4 -334669515#3 -334669515#2 -334669515#1 -334669515#0 -52525591#1 -52525591#0 -334669513#2 -334669513#1 -334669513#0 -334669509#1 -334669509#0 -122423293#38 -122423293#37 -122423293#36 -122423293#35 -122423293#34 -122423293#33 -122423293#32 -122423293#31 -122423293#30 -122423293#29 -122423293#28 -122423293#27 -122423293#26 -122423293#25 -122423293#24 -122423293#23 -122423293#22 -122423293#21 -122423293#20 -122423293#19 -122423293#18 31651987#0 31651987#1 -37202435#0 -39654089#0 88404721#0 88404721#1 88404721#2 88404721#3 88404721#4 88404721#5 -88404721#5"/>
    </vehicle>
    <vehicle id="38" depart="38.00">
        <route edges="88448708#5 -88448751#2 -88448751#1 -88448751#0 779669374#6 779669374#7 779669374#8 779669374#9 779669374#10 779669374#11 779669374#12 779669374#13 88448762 779669383#0 779669383#1 779669383#2 779669383#3 779669383#4 779669383#5 88453375#0 88453375#1 88453375#2 -88453375#2"/>
    </vehicle>
    <vehicle id="39" depart="39.00">
        <route edges="-39653437 39653437 -122423293#35 -122423293#34 -122423293#33 -122423293#32 -122423293#31 -122423293#30 -122423293#29 -39653418#1 -39653419"/>
    </vehicle>
    <vehicle id="40" depart="40.00">
        <route edges="30966937#1 30966937#2 -26710902#3 -26710902#2 -26710902#1 -26710902#0 -52525593#0 -334669502 -334669501 -334669506#1 -334669506#0 -913071907 -913071908 -334669503 -24858406 -34387709 -24858405#15 -24858405#14 31651984#0 31651984#1 31651984#2 31651983#0 39653430 -39653430"/>
    </vehicle>
    <vehicle id="41" depart="41.00">
        <route edges="31651987#2 31651987#3 -31651987#3 -31651987#2 -31651987#1 -31651987#0 122423293#18 122423293#19 122423293#20 122423293#21 122423293#22 122423293#23 122423293#24 122423293#25 122423293#26 122423293#27 122423293#28 122423293#29 122423293#30 122423293#31 122423293#32 122423293#33 122423293#34 122423293#35 122423293#36 122423293#37 122423293#38 334669509#0 334669509#1 334669513#0 334669513#1 334669513#2 52525591#0 52525591#1 334669515#0 334669515#1 334669515#2 334669515#3 334669515#4 334669507#0 334669507#1 34210743#0 34210743#1 779669376#0 779669376#1 779669376#2 779669372 88453421#0 88453421#1 88453421#2 88453419#0 88453419#1 88448708#0 88448708#1"/>
    </vehicle>
    <vehicle id="42" depart="42.00">
        <route edges="-88448751#0 779669374#6 779669374#7 779669374#8 779669374#9 779669374#10 779669374#11 779669374#12 779669374#13 779669382#0 779669382#1 779669375#0 779669375#1 779669375#2 779669375#3 779669375#4 779669375#5 779669375#6 779669375#7 779669375#8 30847142#0 30847142#1 88404721#0 88404721#1 88404721#2 39653406#0 39653406#1 -39653406#1"/>
    </vehicle>
    <vehicle id="43" depart="43.00">
        <route edges="947874653#1 947874653#2 947874653#3 947874653#4 947874653#5 947874653#6 947874653#7 947874653#8 947874653#9 92005137#13 92005137#14 92005137#15 92005137#16 -92004645#7 -37681509#1 -37681509#0 -122423293#12 -122423293#11 -122423293#10 122423293#10"/>
    </vehicle>
    <vehicle id="44" depart="44.00">
        <route edges="-31651983#0 -31651984#2 -31651984#1 -31651984#0 24858405#14 24858405#15 34387709 24858406 334669503 913071908 913071907 334669506#0 334669506#1 334669501 334669502 52525593#0 52525593#1 26715996#0 -26715996#0"/>
    </vehicle>
    <vehicle id="45" depart="45.00">
        <route edges="-31651987#2 -31651987#1 -31651987#0 -122423293#17 -122423293#16 -122423293#15 -122423293#14 -122423293#13 -122423293#12 -122423293#11 -122423293#10 -122423293#9 -122423293#8 -122423293#7 -122423293#6 -122423293#5 -122423293#4 -32505096#3 -32505096#2 32505097#1"/>
    </vehicle>
    <vehicle id="46" depart="46.00">
        <route edges="39653456 122423293#32 122423293#33 122423293#34 122423293#35 122423293#36 122423293#37 122423293#38 334669509#0 334669509#1 334669513#0 334669513#1 334669513#2 52525591#0 52525591#1 334669515#0 334669515#1 334669515#2 334669515#3 334669515#4 334669507#0 334669507#1 34210743#0 34210743#1 -88448881#8 -88448881#7 -88448881#6 -88448881#5 -88448881#4 -88448881#3 -88448881#2 -88448881#1 -88448881#0 -779669373#6 -779669373#5 -779669373#4 -779669373#3 -779669373#2 -779669373#1 -779669373#0 -88448745#13 -88448745#12 -88448745#11 -88448745#10 -88448745#9 -88448745#8"/>
    </vehicle>
    <vehicle id="47" depart="47.00">
        <route edges="-26715996#14 -26715996#13 -26715996#12 -26715996#11 -26715996#10 -26715996#9 -26715996#8 -26715996#7 -26715996#6 -26715996#5 -26715996#4 -26715996#3 87471940#0 87471940#1 -87471940#1"/>
    </vehicle>
    <vehicle id="48" depart="48.00">
        <route edges="947874653#0 947874653#1 947874653#2 947874653#3 947874653#4 947874653#5 947874653#6 947874653#7 947874653#8 947874653#9 92005137#13 92005137#14 92005137#15 92005137#16 92004645#8 92004645#9 92004645#10 92004645#11 92004645#12 92004645#13 92004645#14 92004645#15 92004645#16 92004645#17 700785352#0 700785352#1 700785352#2 700785352#3 24858405#0 24858405#1 24858405#2 24858405#3 24858405#4 24858405#5 24858405#6 24858405#7 24858405#8 24858405#9 24858405#10 24858405#11 24858405#12 24858405#13"/>
    </vehicle>
    <vehicle id="49" depart="49.00">
        <route edges="88453421#5 88448819#0 88448819#1 88448819#2 88448819#3 -88448819#3 -88448819#2 -88448819#1 -88448819#0 -88453421#5 -88453421#4 -88453421#3 -88453421#2 -88453421#1 -88453421#0 -779669372 -779669376#2 -779669376#1 -779669376#0 -34210743#1 -34210743#0 -334669507#1 -334669507#0 -334669515#4 -334669515#3 -334669515#2 -334669515#1 -334669515#0 -52525591#1 -52525591#0 -334669513#2 -334669513#1 -334669513#0 -334669509#1 -334669509#0 -122423293#38 -122423293#37 -122423293#36 -122423293#35 -122423293#34 -122423293#33 -122423293#32 -122423293#31 -122423293#30 -122423293#29 -122423293#28 -122423293#27 -122423293#26 -122423293#25 -122423293#24 -122423293#23 39653414#0 -861118976#1 861118976#1"/>
    </vehicle>
    <vehicle id="50" depart="50.00">
        <route edges="-122423293#26 -122423293#25 -122423293#24 -122423293#23 -122423293#22 -122423293#21 -122423293#20 -122423293#19 -122423293#18 31651987#0 31651987#1 -37202435#0 -39654089#0 88404721#0 88404721#1 88404721#2 88404721#3 88404721#4 88404721#5 88404721#6 88404721#7 88404721#8 88404721#9 88404721#10 -39653401 39653401"/>
    </vehicle>
    <vehicle id="51" depart="51.00">
        <route edges="37681508#1 -37681508#1 -37681508#0 92004645#5 92004645#6 92004645#7 92004645#8 92004645#9 92004645#10 92004645#11 92004645#12 92004645#13 92004645#14 92004645#15 92004645#16 92004645#17 700785352#0 700785352#1 700785352#2 700785352#3 24858405#0 24858405#1 24858405#2 24858405#3 24858405#4 24858405#5 24858405#6"/>
    </vehicle>
    <vehicle id="52" depart="52.00">
        <route edges="-39653439 34210739#2 34210739#3 34210739#4 34210739#5 34210739#6 34210739#7 31651985#2 -24858405#13 -24858405#12 33004133"/>
    </vehicle>
    <vehicle id="53" depart="53.00">
        <route edges="-31651987#5 -31651987#4 -31651987#3 -31651987#2 -31651987#1 -31651987#0 122423293#18 122423293#19 122423293#20 122423293#21 122423293#22 122423293#23 122423293#24 122423293#25 122423293#26 122423293#27 122423293#28 122423293#29 122423293#30 122423293#31 122423293#32 122423293#33 122423293#34 122423293#35 122423293#36 122423293#37 122423293#38 334669509#0 334669509#1 334669513#0 334669513#1 334669513#2 52525591#0 52525591#1 334669515#0 334669515#1 334669515#2 334669515#3 334669515#4 334669507#0 334669507#1 34210743#0 34210743#1 779669376#0 779669376#1 779669376#2 779669372 88453421#0 88453421#1 88453421#2 88453421#3 88453421#4 88453421#5 88448819#0 88448819#1 88448819#2 88448819#3 -88448819#3 -88448819#2 -88448819#1 -88448819#0"/>
    </vehicle>
    <vehicle id="54" depart="54.00">
        <route edges="-88453424#0 -779669375#8 -779669375#7 -779669375#6 -779669375#5 -779669375#4 -779669375#3 -779669375#2 -779669375#1 -779669375#0 -779669382#1 -779669382#0 -779669374#13 -779669374#12 -779669374#11 -779669374#10 -779669374#9 -779669374#8 -779669374#7 -779669374#6 -779669374#5 -779669374#4 -779669374#3 -779669374#2 -779669374#1 -779669374#0 -88453419#2 88453419#2"/>
    </vehicle>
    <vehicle id="55" depart="55.00">