<?xml version="1.0" encoding="UTF-8"?>

<!-- generated on 2023-11-01 10:23:20.124726 by randomTrips.py UNKNOWN
<configuration>
    <net-file value="esbjerg/esbjerg.net.xml"/>
    <route-file value="esbjerg/esbjerg.rou.xml"/>
    <length value="True"/>
    <end value="1000.0"/>
</configuration>
-->

<!-- generated on 2023-11-01 10:23:20 by Eclipse SUMO duarouter Version 1.18.0
<configuration xmlns:xsi="http://www.w3.org/2001/XMLSchema-instance" xsi:noNamespaceSchemaLocation="http://sumo.dlr.de/xsd/duarouterConfiguration.xsd">

    <input>
        <net-file value="esbjerg/esbjerg.net.xml"/>
        <route-files value="trips.trips.xml"/>
    </input>

    <output>
        <output-file value="esbjerg/esbjerg.rou.xml"/>
        <alternatives-output value="NUL"/>
    </output>

    <time>
        <begin value="0"/>
        <end value="1000.0"/>
    </time>

    <report>
        <no-warnings value="true"/>
        <ignore-errors value="true"/>
        <no-step-log value="true"/>
    </report>

</configuration>
-->

<routes xmlns:xsi="http://www.w3.org/2001/XMLSchema-instance" xsi:noNamespaceSchemaLocation="http://sumo.dlr.de/xsd/routes_file.xsd">
    <vehicle id="3" depart="3.00">
        <route edges="672680793 -414865922#0 30096742 672680799 672680798#0 672680798#1 497477315#0 -87905540#6 -672680794#1 672680794#1 -87905540#5 87905540#5 87905540#6 87905540#7 1217033#6 1217033#7 1217033#8 1217033#9 -1217033#9 -1217033#8 -1217033#7 -1217033#6"/>
    </vehicle>
    <vehicle id="4" depart="4.00">
        <route edges="-86419#4 -86419#3 -86419#2 -86419#1 -86419#0 1212312#0 1212312#1 -1020090#3"/>
    </vehicle>
    <vehicle id="5" depart="5.00">
        <route edges="-377658501#1 377658501#1 377658501#2 86419#0 86419#1 86419#2 86419#3 2610257#8 2610257#9 539483722#0 539483722#1 -539483722#1 -539483722#0 -2610257#9 737966115 -414865922#0 30096742 672680799 672680798#0 672680798#1 497477315#0 497477315#1 497477315#2 497477315#3 672680803#1 672680802#0 672680802#1 672680802#2 448205612#0 448205612#1 448205612#2 448205612#3 448205612#4 448205612#7 448205612#8 1110026681#0 1110026681#1 1110026684 1110026677#0 1110026677#1 1110026677#2 1110026677#3 1110026677#4 1110026677#5 1107580000#2 1107580000#3 1107580000#4 1107580000#5 1107580000#6 1107580000#7 1107580006#0 1107580006#1"/>
    </vehicle>
    <vehicle id="6" depart="6.00">
        <route edges="-1020090#0 -1020088#5 1020088#5 1020090#0 1020090#1 1020090#2 1020090#3 1212312#2 1212312#3 1212312#4 498424926#0 498424926#1 498424925 498424927#0 -498424927#0 -498424925 -498424926#1 -498424926#0 -498424931#1 -498424931#0 -498424932#2 -498424932#1 -498424932#0 -498424933 -382706649#7 -382706649#6"/>
    </vehicle>
    <vehicle id="7" depart="7.00">
        <route edges="3127822#2 3127822#3 3127822#4 3127822#5 498357689#4 367997#0 1212549#1 1212549#2 1212549#4 1212549#5 1212549#6"/>
    </vehicle>
    <vehicle id="11" depart="11.00">
        <route edges="-498371309#0 -104277676#3 -2610257#2 2610257#2 2610257#3 2610257#4 -2610257#4 1019398#4 495764463#0 1212549#7 -1217033#3 -1217033#2 -1217033#0 -1135586926 495764464#0 495764464#1 495764464#2 498357689#0 498357689#1 498357689#2 498357689#3 -3127822#5 -3127822#4 -3127822#3 -3127822#2 -3127822#1 -960095864#1 -960095864#0 -3127832#9"/>
    </vehicle>
    <vehicle id="14" depart="14.00">
        <route edges="498371308#3 426429275#0 426429275#1 426429272 426429276 498348776#0 498348776#1 448205611#0 448205611#1 -448205611#1 -448205611#0 -498348776#1 -498348776#0 -426429276 426429273 426429274#0 426429274#1 -498371308#3 -498371308#2 -498371308#1 -498371308#0 -495764465#1 -495764465#0 -498371309#1 -498371309#0 -104277676#3 -2610257#2 2610257#2 2610257#3 -1019398#3 -1019398#2 3127831#8 3127831#10 -86419#2 -86419#1 -86419#0 1212312#0 1212312#1 1212312#2 1212312#3 1212312#4 498424926#0 498424926#1 498424925 498424927#0 -498424927#0 -498424925 -498424926#1 -498424926#0 -498424931#1 -498424931#0 -498424932#2 -498424932#1 -498424932#0 -498424933 -382706649#7 -382706649#6 -382706649#5 -382706649#3 -382706649#2 -382706649#1 -382706649#0 -24863369#1 1212314#0 1212314#1 1212314#2 1212314#3 1212314#4 4360938#1 4360938#2 -4360938#2 -4360938#1 -672697684 -104375005 -498651687 -168424779 2953355#0 2953355#1 2953355#2 2953355#3"/>
    </vehicle>
    <vehicle id="15" depart="15.00">
        <route edges="490032533#1 7450831#0 7450831#1 498371315#7 498371315#8 498371315#9 -498371315#9 -498371315#8 -3128864#2 -1020088#1 1020088#1 1020088#2 1020088#3 1020088#4 1020088#5 1020090#0 1020090#1 1020090#2 1020090#3 1020090#4 1020090#5 1020090#6 -1020090#6 3128865#1 3128865#2 3128865#3 539485073 539483721#0 539483721#1 -414865922#1 -414865922#0 30096742 672680799 672680798#0 672680798#1 497477315#0 497477315#1 497477315#2 497477315#3 672680803#1 672680802#0 672680802#1 672680802#2 448205612#0 448205612#1 448205612#2 448205612#3"/>
    </vehicle>
    <vehicle id="16" depart="16.00">
        <route edges="1107580002#0 1107580002#1 1107580004#0 7862732#2 448205732#0 448205732#1 448205732#2 448205732#3 448205732#4 448205732#5 448205732#6 448205732#7 1110026680#0 1110026680#1 1110026680#2 1110026673#1 -1019402#9 -1019402#8 -1019402#7 -1019402#6 -1019402#5 1110026681#0 1110026681#1 1110026681#2 1108056043#2 1108056043#3 1108056043#4 1108056043#5 1108056044#0 1108056044#1 1107384009#0 1107384009#1 98726526 1107384027 1107384020#0 1107384020#1 1107384020#2 1107384020#3 1107384020#4 1107384020#5 87806415 498348769#0 498348769#1 498348769#2 498348769#3 -498348770#1 -498348771#0 -498348772 -448205611#1 -448205611#0 -498348776#1 -498348776#0 -426429276 426429273 426429274#0 426429274#1 -498371308#3 87905540#10 87905540#11 87905540#12 87905540#13 87905540#14"/>
    </vehicle>
    <vehicle id="18" depart="18.00">
        <route edges="497477315#0 -87905540#6 -672680794#1 672680794#1 -87905540#5 87905540#5 87905540#6 87905540#7 87905540#8 87905540#9 87905540#10 87905540#11 87905540#12 87905540#13 367997#2 -367998#3 3127822#3 3127822#4 3127822#5"/>
    </vehicle>
    <vehicle id="19" depart="19.00">
        <route edges="500761717#0 500761717#1 500761717#2 448205732#0 448205732#1 448205732#2 448205732#3 448205732#4 448205732#5 448205732#6 448205732#7 1110026680#0 1110026680#1 1110026680#2 1110026673#1 -1019402#9 -1019402#8 -1019402#7 -1019402#6 -1019402#5 1110026681#0 1110026681#1 1110026681#2 1108056043#2 1108056043#3 1108056043#4 1108056043#5 1108056044#0 1108056044#1 1107384009#0 1107384009#1 98726526 1107384027 1107384020#0 1107384020#1 1107384020#2 1107384020#3 1107384020#4 1107384020#5 87806415 498348769#0 498348769#1 498348769#2 498348769#3 -498348770#1 -498348771#0 -498348772 -448205611#1 -448205611#0 -498348776#1 -498348776#0 -426429276 426429273 426429274#0 426429274#1 -498371308#3 -498371308#2 -498371308#1 -498371308#0 -495764465#1 -495764465#0 -498371309#1 -498371309#0 -104277676#3 -2610257#2 2610257#2 2610257#3 -1019398#3 -1019398#2 3127831#8 3127831#10 -86419#2 -86419#1 -86419#0 1212312#0 1212312#1 1212312#2 1212312#3 1212312#4 498424926#0 498424926#1 498424925 498424927#0 -498424927#0 -498424925 -498424926#1 -498424926#0 -498424931#1 -498424931#0 -498424932#2 -498424932#1 -498424932#0 -498424933 -382706649#7 -382706649#6 -382706649#5 -382706649#3 -382706649#2 -382706649#1 -382706649#0 -24863369#1 24863369#1"/>
    </vehicle>
    <vehicle id="20" depart="20.00">
        <route edges="367998#3 672689145#0 672689145#2 -960095864#2 -960095864#1 -4776228#5 -4776228#4 -4776228#3 -4776228#2 -4776228#1 -4776228#0 4776228#0 1212549#4 1212549#5 1212549#6 1212549#7 1212549#8 1212549#9 -672680798#0 -672680799 -30096742 -86419#6 -86419#5 -86419#4 -86419#3 -86419#2 -86419#1 -86419#0 1212312#0 1212312#1 1212312#2 1212312#3 1212312#4 498424926#0 498424926#1 498424925 498424927#0 -498424927#0 -498424925 -498424926#1 -498424926#0 -498424931#1 -498424931#0 -498424932#2 -498424932#1 -498424932#0 -498424933 -382706649#7 -382706649#6 -382706649#5 -382706649#3 -382706649#2 -382706649#1 -382706649#0 -24863369#1 1212314#0 1212314#1 1212314#2 1212314#3 1212314#4 4360938#1 4360938#2 -4360938#2 -4360938#1 -672697684 -104375005"/>
    </vehicle>
    <vehicle id="21" depart="21.00">
        <route edges="-4004134#3 -4004134#2 -4004134#1 104359717#1 104359717#2 104359717#3 -104359717#3 -104359717#2 -104359717#1 -104359717#0 219826611#1 498387191#0 498387191#1 498387191#2 498387191#3 498387191#4 498387191#5 962199865 53813#0 53813#1 53813#2 104277676#0 104277676#1 104277676#2 104277676#3 498371309#0 498371309#1 495764465#0 495764465#1 498371308#0 1212549#6 -495764463#0 495764464#0 495764464#1 495764464#2 498357689#0 498357689#1 3127832#0 3127832#1 1212549#5 -498371308#0 -495764465#1"/>
    </vehicle>
    <vehicle id="22" depart="22.00">
        <route edges="-1212549#9 1212549#9 -672680798#0 -672680799 -30096742 -86419#6 -86419#5 -86419#4 -2610257#7 -2610257#6 -2610257#5 -2610257#4 -2610257#3 -2610257#2 2610257#2 -104277676#2 -104277676#1 -104277676#0 441622735#0 441622735#1 441622735#2 934973767#0 934973767#1 104359720#0 104359720#1 104359720#2 104359720#3 -448205714#4 -448205714#2"/>
    </vehicle>
    <vehicle id="23" depart="23.00">
        <route edges="-1873084#2 -1873084#1 -1873084#0 -465235387 -957051815#1 957051815#1 465235388#2 465235389#0 465235389#2 465235389#3 498592448#0 1107736039 500761717#0 500761717#1 500761717#2 448205732#0 448205732#1 448205732#2 448205732#3 448205732#4 448205732#5 448205732#6 448205732#7 1110026680#0 1110026680#1 1110026680#2 1110026673#1 -1019402#9 -1019402#8 -1019402#7 -1019402#6 -1019402#5 1110026681#0 1110026681#1 1110026681#2 1108056043#2 1108056043#3 1108056043#4 1108056043#5 1108056044#0 1108056044#1 1107384009#0 1107384009#1 98726526 1107384027 1107384020#0 1107384020#1 1107384020#2 1107384020#3 1107384020#4 1107384020#5 87806415 498348769#0 498348769#1 498348769#2 498348769#3 -498348770#1 -498348771#0 -498348772 -448205611#1 -448205611#0 -498348776#1 -498348776#0 -426429276 426429273 426429274#0 426429274#1 -498371308#3 -498371308#2 -498371308#1 -498371308#0 -495764465#1 -495764465#0 -498371309#1 -498371309#0 -104277676#3 -2610257#2 2610257#2 2610257#3 -1019398#3 -1019398#2 3127831#8 3127831#10 -86419#2 -86419#1 -86419#0 1212312#0 1212312#1 1212312#2 1212312#3 1212312#4 498424926#0 498424926#1 498424925 498424927#0 -498424927#0 -498424925 -498424926#1 -498424926#0 -498424931#1 -498424931#0 -498424932#2 -498424932#1 -498424932#0 -498424933 4360950#1 4360950#2 444402436 87786759#1 87786759#2 -445632807#1 -445632807#0 -490032532#5"/>
    </vehicle>
    <vehicle id="24" depart="24.00">
        <route edges="2610648#2 2610648#3 2610257#0 2610257#1 2610257#2 2610257#3 2610257#4 -2610257#4 1019398#4 495764463#0 495764463#1 495764463#2 495764463#3 672680797#0 -955378588#0 -955378589 -955378590#1 -955378590#0 -185159672#2 -185159672#0 -955378591 -672680800#1 -672680800#0 -1135747567 -672680801#2 -672680801#1 -672680801#0 672680801#0 689676123#0 689676123#2 689676123#3 689676123#4 -689676123#4 -689676123#3 -689676123#2"/>
    </vehicle>
    <vehicle id="26" depart="26.00">
        <route edges="-4776226#4 2610257#1 2610257#2 2610257#3 2610257#4 -2610257#4 1019398#4 495764463#0 495764463#1 495764463#2 495764463#3 672680797#0 -955378588#0 -955378589 -955378590#1 -955378590#0 -185159672#2 -185159672#0 -955378591 -672680800#1 -497477315#3 497477315#3 672680803#1 672680802#0 672680802#1 672680802#2 448205612#0 448205612#1 448205612#2 448205612#3 448205612#4 -573589192#5 -573589192#4 -573589192#3 -573589192#2 -573589192#1 -573589192#0 -833408268#2 -833408268#0 -1135021241#1 -1135021241#0 -833408228#1 -833408228#0 -86448#2 86448#2 833408228#0 833408228#1"/>
    </vehicle>
    <vehicle id="27" depart="27.00">
        <route edges="3127822#1 3127822#2 3127822#3 3127822#4 -1212549#1 367997#1 -87905540#13 -87905540#12 -87905540#11 -87905540#10 -87905540#9 -495764463#1 -1212549#6 498371308#1 498371308#2 498371308#3 426429275#0 426429275#1 426429272 426429276 498348776#0 498348776#1 -498348775#2 -498348775#1 -498348775#0 -86403#5 -86403#4 -86403#3 -86403#2 -86403#1 -86403#0 -672680802#2 -672680802#1 -672680802#0 -672680803#1 672680800#1 955378591 185159672#0 30999953#0 30999953#2 30999953#3 30999953#4"/>
    </vehicle>
    <vehicle id="28" depart="28.00">
        <route edges="-3128864#1 -3128864#0 3128922#0 498406512 498406510 498424930 -498424930 -498406510 -498406512 -3128922#0 -1020089#8 -4818488#9 -4818488#8 -4818488#7 -4818488#6 -4818488#5 -4818488#4 -4818488#3 -4818488#2 4818488#2 4818488#3 3128865#0 3128865#1 3128865#2 3128865#3 539485073 539483721#0 539483721#1 -414865922#1 -414865922#0 30096742 672680799 672680798#0 672680798#1 497477315#0 497477315#1 497477315#2 497477315#3 672680803#1 672680802#0 672680802#1 672680802#2 448205612#0 448205612#1 448205612#2"/>
    </vehicle>
    <vehicle id="30" depart="30.00">
        <route edges="955378587#1 955378586 426429272 426429276 498348776#0 498348776#1 -498348775#2 -498348775#1 -498348775#0 -86403#5 -672680797#1 -672680797#0 -495764463#3 495764463#3 672680797#0 -955378588#0 -955378589 -955378590#1 -1217033#7 -1217033#6 -1217033#5 -1217033#4 -1217033#3 -1217033#2 -1217033#0 -1135586927 1135586927 495764462#0 495764462#1 495764462#2 497466844 414865922#0 414865922#1 539483718#0 539483718#1 539483718#2 -180874608#2 -180874608#1 -180874608#0 377658496#0 377658496#1 377658505#1 -1020090#11 -1020090#9 -1020090#8 -1020090#7 -1020090#6 -1020090#5 3128866#1 3128866#2 3127834"/>
    </vehicle>
    <vehicle id="32" depart="32.00">
        <route edges="498357689#4 367997#0 1212549#1 1212549#2 1212549#4 1212549#5 -498371308#0 -495764465#1 -495764465#0 -498371309#1 -498371309#0 -104277676#3 -104277676#2 -104277676#1 -104277676#0 441622735#0 441622735#1 441622735#2 934973767#0 934973767#1 962199866 962199864#0 962199864#1 59335#0 104359717#0 104359717#1 104359717#2 -4816969#1 4816969#1"/>
    </vehicle>
    <vehicle id="33" depart="33.00">
        <route edges="-414865922#0 -497466844 -495764462#2 495764462#2 497466844 414865922#0 414865922#1 539483718#0 539483718#1 539483718#2 -180874608#2 -180874608#1 -180874608#0 377658496#0 377658496#1 377658505#1 -1020090#11 -1020090#9 -1020090#8 -1020090#7 -1020090#6 -1020090#5"/>
    </vehicle>
    <vehicle id="35" depart="35.00">
        <route edges="-367998#4 -367998#3 -367998#2 -4776228#3 -4776228#2 -4776228#1 -4776228#0 4776228#0 1212549#4 1212549#5 1212549#6 -495764463#0 495764464#0 495764464#1 495764464#2 495764465#0 495764465#1 498371308#0 498371308#1 498371308#2 498371308#3 426429275#0 426429275#1 426429272 426429276 498348776#0 498348776#1 -498348775#2 -498348775#1 -498348775#0 -86403#5 -86403#4 -1217033#12 1217033#12 1217033#13 -1217033#13 86403#4"/>
    </vehicle>
    <vehicle id="36" depart="36.00">
        <route edges="539483721#0 539483721#1 -414865922#1 -414865922#0 -497466844 -495764462#2 495764462#2 497466844 -86419#6 -86419#5 -86419#4 -2610257#7 -2610257#6 -2610257#5 -2610257#4 -2610257#3 -2610257#2 2610257#2 -104277676#2 -104277676#1 -104277676#0 441622735#0 441622735#1 441622735#2 934973767#0 934973767#1 962199866 962199864#0 962199864#1 59335#0 104359717#0 104359717#1 104359717#2 -490032533#3 -490032533#2 -490032533#1 -490032533#0 490032533#0 -3128864#3 -3128864#2 -3128864#1 -3128864#0 3128922#0 498406512 498406510 498424930 -498424930 -498406510 -498406512 -498424929 -498424928 -498424927#1"/>
    </vehicle>
    <vehicle id="37" depart="37.00">
        <route edges="3127822#5 498357689#4 367997#0 1212549#1 1212549#2 1212549#4 1212549#5 1212549#6 1212549#7 1212549#8 1212549#9 -672680798#0 -672680799 -30096742 -86419#6 -86419#5 -86419#4 -86419#3 -86419#2 -86419#1 -86419#0 1212312#0 1212312#1 1212312#2 1212312#3 1212312#4 490032532#5 445632807#0 445632807#1 87786759#3 -87786759#3 -87786759#2 -87786759#1 -87786759#0"/>
    </vehicle>
    <vehicle id="39" depart="39.00">
        <route edges="-4776226#0 498371307#0 498371307#1 -498371309#1 -498371309#0 -104277676#3 -104277676#2 -3127831#4 -3127831#3 2610648#3 2610257#0 4776226#4 4776226#5 -4776226#5"/>
    </vehicle>
    <vehicle id="40" depart="40.00">
        <route edges="1135586926 -1135586927 1135586927 1217033#0 1217033#2 1217033#3 1217033#4 1217033#5 1217033#6 1217033#7 1217033#8 1217033#9 -1217033#9 -1217033#8 955378590#1 955378589 955378588#0 955378588#1 955378587#0 955378587#1 955378586 426429272 426429276 498348776#0 498348776#1 448205611#0 448205611#1 -448205611#1 -448205611#0 -448205609#3 -448205609#2 -448205609#1 -448205609#0 498348773#1 498348773#2 -4809559#0"/>
    </vehicle>
    <vehicle id="41" depart="41.00">
        <route edges="1212549#7 1212549#8 1212549#9 1212549#10 1212549#11 672680793 -414865922#0 30096742 672680799 672680798#0 672680798#1 497477315#0 497477315#1 497477315#2 497477315#3 -672680800#0 -1135747567 -672680801#2 -672680801#1 -672680801#0 672680801#0 672680801#1"/>
    </vehicle>
    <vehicle id="43" depart="43.00">
        <route edges="960095864#1 -3127822#0 3127822#0 3127822#1 3127822#2 367998#3 672689145#0 672689145#2 -960095864#2 -960095864#1 -960095864#0 -3127832#9 3127832#9 498348773#1 498348773#2 -4809559#0 498348770#1 87806419#0 87806419#1 1107195857#0 1107195857#1 1107195857#2 1107195857#3 1107195865#0 1107195865#1 497471381#0 497471381#1 497471381#2 497471381#3 497471381#4 497471381#5 497471381#6 497471381#7 497471381#8 1110026682#0 1110026682#1 -448205612#8 448205612#8 1110026681#0 1110026681#1 1110026681#2 1108056043#2"/>
    </vehicle>
    <vehicle id="44" depart="44.00">
        <route edges="-1217033#7 -1217033#6 87905540#8 87905540#9 498371308#3 426429275#0 426429275#1 426429272 426429276 498348776#0 498348776#1 448205611#0 448205611#1 -448205611#1 -448205611#0 -448205609#3 -448205609#2 -448205609#1 -448205609#0 498348773#1 498348773#2 -4809559#0 498348770#1 87806419#0 87806419#1 498395772#0 498395772#1 498395772#2 1107922459#0 1107384020#3 1107384020#4 1107384020#5 87806415 1107195848#0 1107195848#1 -448205616#2 -448205616#1 -4776973#5 -4776973#3 -4776973#2 -4776973#1 -4776973#0 448205615#1 448205615#2 448205615#3 -448205615#3 -448205615#2 -448205615#1 -1111199219"/>
    </vehicle>
    <vehicle id="45" depart="45.00">
        <route edges="-2610257#6 -2610257#5 -2610257#4 -2610257#3 -2610257#2 2610257#2 2610257#3 -1019398#3 -1019398#2 -3127831#6 3127831#6"/>
    </vehicle>
    <vehicle id="46" depart="46.00">
        <route edges="4809559#3 -4809559#3 -4809559#2 -4809559#0 -498348771#0 -498348772 -448205611#1 -448205611#0 -498348776#1 -498348776#0 -426429276 426429273 955378585 955378584#0 955378584#1 -955378584#1 -955378584#0"/>
    </vehicle>
    <vehicle id="47" depart="47.00">
        <route edges="-1212312#3 -1212312#2 -1212312#1 -1212312#0 86419#0 86419#1 86419#2 86419#3 86419#4 -86419#4 -2610257#7 -2610257#6 -2610257#5 -2610257#4 1019398#4 495764463#0 495764463#1 495764463#2 495764463#3 672680797#0 672680797#1 -86403#4 -86403#3"/>
    </vehicle>
    <vehicle id="48" depart="48.00">
        <route edges="957051815#1 465235388#2 465235389#0 465235389#2 465235389#3 498592448#0 1107736039 500761717#0 500761717#1 500761717#2 448205732#0 448205732#1 448205732#2 448205732#3 448205732#4 448205732#5 448205732#6 448205732#7 1110026680#0 1110026680#1 1110026680#2 1110026673#1 -1019402#9 -1019402#8 -1019402#7 -1019402#6 -1019402#5 1110026681#0 1110026681#1 1110026681#2 1108056043#2 1108056043#3 1108056043#4 1108056043#5 1108056044#0 1108056044#1 1107384009#0 1107384009#1 98726526 1107384027 1107384020#0 1107384020#1 1107384020#2 1107384020#3 1107384020#4 1107384020#5 87806415 498348769#0 498348769#1 498348769#2 498348769#3 -498348770#1 -498348771#0 -498348772 -448205611#1 -448205611#0 -498348776#1 -498348776#0 -426429276 426429273 426429274#0 426429274#1 -498371308#3 -498371308#2 -498371308#1 -498371308#0 -495764465#1 -495764465#0 -498371309#1 -498371309#0 -104277676#3 -2610257#2 2610257#2 2610257#3 -1019398#3 -1019398#2 3127831#8 3127831#10 -86419#2 -86419#1 -86419#0 1212312#0 1212312#1"/>
    </vehicle>
    <vehicle id="51" depart="51.00">
        <route edges="3128864#0 -3128864#0 3128922#0 498406512 498406510 498424930 -498424930 -498406510 -498406512 -3128922#0 -1020089#8 -4818488#9 -4818488#8 -4818488#7 -4818488#6 -4818488#5 -4818488#4 -4818488#3 -4818488#2 4818488#2 4818488#3 3128865#0 3128865#1 3128865#2 3128865#3 539485073 539483722#0 539483722#1 -539483722#1 -539483722#0 -2610257#9 -2610257#8 -2610257#7 -2610257#6 -2610257#5 -2610257#4 1019398#4 495764463#0 1212549#7 -1217033#3 -1217033#2 -1217033#0 -1135586926 495764464#0 495764464#1 495764464#2 498357689#0 498357689#1 498357689#2 498357689#3 498357689#4 367997#0 1212549#1"/>
    </vehicle>
    <vehicle id="52" depart="52.00">
        <route edges="-4776226#4 2610257#1 2610257#2 2610257#3 -1019398#3 -1019398#2 3127831#8 3127831#10 -86419#2 -86419#1 -86419#0 1212312#0 1212312#1 1212312#2 4818488#8 3128863#0 3128863#1 3128863#2"/>
    </vehicle>
    <vehicle id="55" depart="55.00">
        <route edges="539483720 -414865922#1 -414865922#0 30096742 672680799 672680798#0 672680798#1 497477315#0 497477315#1 497477315#2 497477315#3 672680803#1 672680802#0 672680802#1 672680802#2 448205612#0 448205612#1 448205612#2 448205612#3 448205612#4 448205612#7 448205612#8 1110026681#0 1110026681#1 1110026681#2 1108056043#2 1108056043#3 1108056043#4 1108056043#5 1108056044#0 1108056044#1 1107384009#0 1107384009#1 98726526 1107384027 1107384020#0 1107384020#1 1107384020#2 1107384020#3 1107384020#4 1107384020#5 87806415 498348769#0 498348769#1 498348769#2 498348769#3 -498348770#1 4809559#0 4809559#2 4809559#3 -4809559#3 -4809559#2 -4809559#0"/>
    </vehicle>
    <vehicle id="56" depart="56.00">
        <route edges="1020090#1 1020090#2 -3128863#2 -3128863#1 3128863#1 3128863#2 3128863#3 377658498#8 377658498#9 377658498#11 497466847#0 497466847#1 -377658501#2 -377658501#1 377658501#1 377658501#2 86419#0 86419#1 86419#2 86419#3 86419#4 -86419#4 -2610257#7 -2610257#6 -2610257#5 -2610257#4 -2610257#3 104277676#3 498371309#0 498371309#1 495764465#0 495764465#1 498371308#0 498371308#1 498371308#2 -87905540#9 -495764463#1 -1212549#6 -1212549#5 -1212549#4 -1212549#2 -1212549#1 -1212549#0 1212549#0 -367997#0"/>
    </vehicle>
    <vehicle id="57" depart="57.00">
        <route edges="672689145#0 672689145#2 -960095864#2 -960095864#1 -4776228#5 -4776228#4 -4776228#3 -4776228#2 -4776228#1 -4776228#0 4776228#0 1212549#4 1212549#5 1212549#6 1212549#7 1212549#8 1212549#9 1212549#10 1212549#11 1212549#12 1212549#13 539483720"/>
    </vehicle>
    <vehicle id="58" depart="58.00">
        <route edges="-4818488#8 -4818488#7 -4818488#6 -4818488#5 -4818488#4 -4818488#3 -4818488#2 4818488#2 4818488#3 3128865#0 1020090#6 -1020090#6 -1020090#5 3128866#1 3128866#2 3127834"/>
    </vehicle>
    <vehicle id="61" depart="61.00">
        <route edges="4776228#3 -367998#1 -367998#0 -955378584#2 -955378584#1 -955378584#0 -955378585 426429274#0 426429274#1 -498371308#3 -498371308#2 -498371308#1 -498371308#0 -495764465#1 -495764465#0 -498371309#1 -498371309#0 -104277676#3 -2610257#2 2610257#2 2610257#3 -1019398#3 -1019398#2 3127831#8 3127831#10 -86419#2 -86419#1 -86419#0 1212312#0 1212312#1 1212312#2"/>
    </vehicle>
    <vehicle id="62" depart="62.00">
        <route edges="-1019398#1 3127833#1 104277676#1 3127831#5 3127831#6 3127831#8 3127831#10 -86419#2 -86419#1 -86419#0 1212312#0 1212312#1 1212312#2 1212312#3 1212312#4 498424926#0 498424926#1 498424925 498424927#0 -498424927#0 -498424925 -498424926#1 -498424926#0 -498424931#1 -498424931#0 -498424932#2 -498424932#1 -498424932#0 -498424933 -382706649#7 -382706649#6 -382706649#5 -382706649#3 -382706649#2 -382706649#1 -382706649#0 -24863369#1 1212314#0 1212314#1 1212314#2 1212314#3 1212314#4 4360938#1 4360938#2 -4360938#2 -4360938#1 -672697684 -104375005 496683841#1 496683841#2 496683841#3 496683841#4 496683841#5 496683841#6 833408260 104375004 -104375004 -833408204#0 -497459842 -86492#7 -539483719#5 -539483719#4 -539483719#3 -539483719#2"/>
    </vehicle>
    <vehicle id="63" depart="63.00">
        <route edges="-1020088#1 1020088#1 1020088#2 1020088#3 1020088#4 1020088#5 1020090#0 1020090#1 1020090#2 1020090#3 1020090#4 1020090#5 1020090#6 -1020090#6 3128865#1 3128865#2 3128865#3 539485073 539483721#0 539483721#1 -414865922#1 -414865922#0 30096742 672680799 672680798#0 672680798#1 497477315#0 497477315#1 497477315#2 497477315#3 672680803#1 672680802#0 672680802#1 672680802#2 448205612#0 448205612#1 448205612#2 448205612#3 448205612#4 448205612#7 448205612#8 1110026681#0 1110026681#1 1110026684 1110026677#0 1110026677#1 1110026677#2 1110026677#3 1110026677#4 1110026677#5 1107580000#2 1107580000#3 1107580000#4 1107580000#5 1107580000#6 1107580000#7 1107580000#8 1107580000#9 1107579999#0 1107579999#1 1107579999#2 1107579999#3 1107579999#4 1107579999#5 1107736038 7862733#0"/>
    </vehicle>
    <vehicle id="65" depart="65.00">
        <route edges="-490032533#3 -490032533#2 -490032533#1 -490032533#0 490032533#0 -3128864#3 -3128864#2 -3128864#1 -3128864#0 3128922#0 498406512 498406510 498424930 -498424930 -498406510 -498406512 -498424929 -498424928 -498424927#1 -498424927#0 -498424925 -498424926#1 -498424926#0 -498424931#1 -498424931#0 -498424932#2 -498424932#1 -498424932#0 -498424933 4360950#1 4360950#2 444402436 87786759#1 87786759#2 -445632807#1 -445632807#0 -490032532#5 -1212312#4 -1212312#3"/>
    </vehicle>
    <vehicle id="67" depart="67.00">
        <route edges="-1217033#16 -1217033#15 1019399#1 1019399#3 1019399#4 4809560 -498348771#0 -498348772 -448205611#1 -448205611#0 -498348776#1 -498348776#0 -426429276 426429273 426429274#0 426429274#1 -498371308#3 -498371308#2 -498371308#1 -498371308#0 -495764465#1 -495764465#0 -498371309#1 -498371309#0 -104277676#3 -104277676#2 -104277676#1 -104277676#0 441622735#0 441622735#1 441622735#2 934973767#0 934973767#1 962199866 962199864#0 962199864#1 59335#0 104359717#0 104359717#1 104359717#2 104359717#3"/>
    </vehicle>
    <vehicle id="69" depart="69.00">
        <route edges="4776219#5 -4776219#5 -3127831#8 1019398#2 1019398#3 1019398#4 495764463#0 495764463#1 495764463#2 495764463#3 672680797#0 672680797#1 -86403#4 -86403#3 -86403#2 -86403#1 -86403#0 -672680802#2 -672680802#1 -672680802#0 -672680803#1 672680800#1 955378591 185159672#0 30999953#0 30999953#2 30999953#3 30999953#4 -30999953#4 -30999953#3"/>
    </vehicle>
    <vehicle id="70" depart="70.00">
        <route edges="1019398#1 1019398#2 1019398#3 1019398#4 495764463#0 495764463#1 495764463#2 495764463#3 672680797#0 672680797#1 -86403#4 -1217033#12 1217033#12"/>
    </vehicle>
    <vehicle id="71" depart="71.00">
        <route edges="-4776226#0 498371307#0 498371307#1 4792368#0 4792368#1 1135586926 495764462#0 495764462#1 495764462#2 497466844 414865922#0 414865922#1 539483718#0 539483718#1 539483718#2 -180874608#2 -180874608#1 -180874608#0 377658496#0 377658496#1 -53790#0 -377658499 539485073 539483721#0"/>
    </vehicle>
    <vehicle id="72" depart="72.00">
        <route edges="-86419#6 -86419#5 -86419#4 -86419#3 -86419#2 -86419#1 -86419#0 1212312#0 1212312#1 1212312#2 1212312#3 1212312#4 498424926#0 498424926#1 498424925 498424927#0 -498424927#0 -498424925 -498424926#1 -498424926#0 -498424931#1 -498424931#0 -498424932#2 -498424932#1 -498424932#0 -498424933 -382706649#7 -382706649#6 -382706649#5 4360947#1 4360947#2 4360947#3 4360947#4 4360947#6 4360947#7 4360947#8 4360947#9 -4360947#9 -137992519#1 -137992519#0 137992519#0 137992519#1 -4360947#8 -4360947#7"/>
    </vehicle>
    <vehicle id="73" depart="73.00">
        <route edges="1107580006#0 1107580006#1 1107580006#2 1107580009#0 1107580009#1 -833408222#2 -833408222#1 -833408222#0 833408228#0 833408228#1 1135021241#0 1135021241#1 833408268#0 833408268#2 573589192#0 573589192#1 573589192#2 573589192#3 573589192#4 573589192#5 448205612#7 448205612#8 1019402#5 -1019402#5 -1019402#4 -1019402#3 -1019402#2 1217033#17 -1217033#17 -1217033#16 -1217033#15 -1217033#14 -1217033#13 -1217033#12 1217033#12 -86403#3 -86403#2 -86403#1 -86403#0 -672680802#2 -672680802#1 -672680802#0 -672680803#1 -497477315#3 497477315#3 672680803#1 672680802#0 672680802#1 672680802#2 448205612#0 448205612#1 448205612#2 448205612#3"/>
    </vehicle>
    <vehicle id="74" depart="74.00">
        <route edges="-367997#2 -367997#1 -367997#0 367997#0 1212549#1 1212549#2 1212549#4 1212549#5 -498371308#0 -495764465#1 -495764465#0 -498371309#1 -498371309#0 -104277676#3 -104277676#2 -104277676#1 -104277676#0 441622735#0 441622735#1 441622735#2 934973767#0 934973767#1 962199866 962199864#0 962199864#1 59335#0 104359717#0 104359717#1 104359717#2 -490032533#3 -490032533#2 -490032533#1 -490032533#0 490032533#0 -3128864#3 498371315#8 498371315#9 -498371315#9 -498371315#8 -498371315#7"/>
    </vehicle>
    <vehicle id="79" depart="79.00">
        <route edges="-414865922#1 -414865922#0 -497466844 -495764462#2 495764462#2 497466844 -86419#6 -86419#5 -86419#4 -2610257#7 -2610257#6 -2610257#5 -2610257#4 -2610257#3 104277676#3 498371309#0 498371309#1 495764465#0 495764465#1 498371308#0 498371308#1 498371308#2 498371308#3 426429275#0 426429275#1 426429272 426429276 498348776#0 498348776#1 448205611#0 448205611#1 -448205611#1 -448205611#0 -448205609#3 -448205609#2 -448205609#1 -448205609#0"/>
    </vehicle>
    <vehicle id="80" depart="80.00">
        <route edges="-1212549#11 -1212549#10 -1212549#9 1212549#9 -672680798#0 -672680799 -30096742 -86419#6 -86419#5 -86419#4 -2610257#7 -2610257#6 -2610257#5 -2610257#4 1019398#4 495764463#0 1212549#7 -1217033#3 -1217033#2 -1217033#0 -1135586926 495764464#0 495764464#1 495764464#2 498357689#0 498357689#1 3127832#0 3127832#1 3127832#2"/>
    </vehicle>
    <vehicle id="82" depart="82.00">