<configuration>
    <input>
        <net-file value="esbjerg.net.xml"/>
        <route-files value="esbjerg.rou.xml"/>
        <additional-files value="esbjerg.poly.xml"/>
    </input>
    <time>
        <begin value="0"/>
        <step-length value="0.001"/>
        <end value="20000"/>
    </time>
    <gui_only>
        <delay value="1"/>
        <start value="true"/>
    </gui_only>
</configuration>
