<?xml version="1.0" encoding="UTF-8"?>

<!-- generated on 2023-11-01 10:23:20 by Eclipse SUMO polyconvert Version 1.18.0
<configuration xmlns:xsi="http://www.w3.org/2001/XMLSchema-instance" xsi:noNamespaceSchemaLocation="http://sumo.dlr.de/xsd/polyconvertConfiguration.xsd">

    <input>
        <net-file value="esbjerg/esbjerg.net.xml"/>
        <osm-files value="esbjerg/esbjerg.osm"/>
        <type-file value="/usr/share/sumo/data/typemap/osmPolyconvert.typ.xml"/>
    </input>

    <output>
        <output-file value="esbjerg/esbjerg.poly.xml"/>
    </output>

</configuration>
-->

<additional xmlns:xsi="http://www.w3.org/2001/XMLSchema-instance" xsi:noNamespaceSchemaLocation="http://sumo.dlr.de/xsd/additional_file.xsd">
    <location netOffset="-462927.54,-6146207.25" convBoundary="-357.12,-1124.10,7073.39,3566.68" origBoundary="8.407779,55.450764,8.525598,55.492848" projParameter="+proj=utm +zone=32 +ellps=WGS84 +datum=WGS84 +units=m +no_defs"/>

    <poly id="1000594069" type="building" color="255,230,230" fill="1" layer="-1.00" shape="2776.637243,619.136304 2774.823371,611.126259 2772.292362,611.691335 2767.735353,612.717388 2769.562056,620.749589 2770.445620,620.542369 2776.637243,619.136304"/>
    <poly id="1001861250" type="amenity" color="237,199,199" fill="1" layer="-1.00" shape="2753.149485,525.310742 2752.731210,523.566713 2751.557227,523.831849 2751.158093,522.109930 2747.327038,522.996786 2748.138301,526.485039 2751.956622,525.587154 2753.149485,525.310742"/>
    <poly id="1001861251" type="amenity" color="237,199,199" fill="1" layer="-1.00" shape="2752.303004,527.031254 2751.450947,527.227101 2751.954628,529.382245 2749.789843,529.888829 2748.975635,530.073252 2748.138301,526.485039 2751.956622,525.587154 2752.303004,527.031254"/>
    <poly id="1001861252" type="amenity" color="237,199,199" fill="1" layer="-1.00" shape="2753.477073,526.777247 2753.986901,528.910085 2751.954628,529.382245 2751.450947,527.227101 2752.303004,527.031254 2753.477073,526.777247"/>
    <poly id="1002396545" type="amenity" color="237,199,199" fill="1" layer="-1.00" shape="2793.528826,581.476745 2792.827041,581.482215 2792.238798,581.453414 2791.631328,581.391374 2791.131251,581.317368 2790.523260,581.188557 2790.079912,581.091850 2789.560174,580.928963 2788.970370,580.699847 2788.431144,580.470337 2788.050325,580.284109 2787.624816,580.042583 2787.243563,579.800712 2786.843257,579.547860 2786.429785,579.228336 2786.028870,578.897584 2785.557629,578.467218 2785.213443,578.113765 2784.792433,577.638490 2784.390130,577.129681 2784.070279,576.653618 2783.781953,576.166179 2788.338570,575.084500 2788.737945,576.839808 2790.309533,576.482548 2792.253449,576.033353 2793.528826,581.476745"/>
    <poly id="1002396650" type="amenity" color="237,199,199" fill="1" layer="-1.00" shape="2880.520359,607.854667 2879.083087,610.848483 2879.020729,610.960260 2877.559050,611.628253 2881.739273,620.688346 2882.369343,620.405216 2882.690825,621.092730 2882.054433,621.375909 2886.974682,632.099641 2887.522907,631.861665 2887.773717,632.405048 2894.880381,629.144580 2894.775764,628.700223 2895.400637,628.561815 2895.479013,628.883955 2895.957780,628.657648 2891.764684,610.616336 2891.316575,610.719982 2891.113835,609.853477 2887.901382,610.601851 2888.489599,613.067972 2886.028124,613.632442 2885.446054,611.144015 2885.054501,611.202705 2884.643461,611.194772 2884.124596,611.143160 2883.592567,611.024874 2883.085308,610.839621 2882.729872,610.664317 2882.234306,610.356551 2881.858864,610.047851 2881.584840,609.771751 2881.297738,609.440105 2881.041729,609.041443 2880.810922,608.631455 2880.520359,607.854667"/>
    <poly id="1002396655" type="amenity" color="237,199,199" fill="1" layer="-1.00" shape="2869.738572,588.963143 2869.854972,589.296115 2869.262226,589.501052 2869.754067,590.955159 2872.537215,590.288015 2872.118042,588.421561 2869.738572,588.963143"/>
    <poly id="1002396657" type="amenity" color="237,199,199" fill="1" layer="-1.00" shape="2869.132749,589.112536 2869.262226,589.501052 2869.754067,590.955159 2870.919101,594.418423 2864.158831,596.696861 2862.773810,592.589812 2864.522078,592.186688 2864.083674,590.286996 2866.002301,589.838029 2869.132749,589.112536"/>
    <poly id="1002396658" type="amenity" color="237,199,199" fill="1" layer="-1.00" shape="2868.669769,582.427456 2864.510586,583.394668 2865.544065,587.827200 2869.715976,586.871019 2868.669769,582.427456"/>
    <poly id="1017596624" type="parking" color="184,184,179" fill="1" layer="-1.00" shape="2370.024639,492.013911 2367.797247,478.175555 2389.167105,474.757208 2391.388108,488.595625 2370.024639,492.013911"/>
    <poly id="1039249616" type="industrial" color="209,209,204" fill="1" layer="-3.00" shape="1843.220213,-15.988731 1841.176833,-14.514428 1838.378415,-11.776468 1836.787822,-9.827232 1835.470379,-7.724373 1834.432943,-5.401173 1833.699737,-2.991375 1833.282337,-0.628625 1833.059011,3.068083 1834.271333,26.518876 1846.372897,57.873258 1852.419342,73.806469 1860.189565,94.166466 1871.872910,124.667311 1895.631044,143.753118 1918.320213,162.035158 1935.778456,176.196755 1958.990395,195.053548 1977.848479,210.339319 1991.640197,221.503234 2011.509605,237.560129 2027.560494,250.553603 2041.262553,261.607093 2068.627819,283.625474 2068.101131,284.186130 2067.111757,290.170423 2016.139146,317.787531 1982.748771,336.305843 1951.881644,353.246162 1918.333027,371.677200 1889.047776,387.904177 1859.318729,403.956837 1824.907001,422.684871 1806.347800,424.124667 1802.727415,374.795345 1799.650524,334.109119 1796.578196,297.151169 1792.848992,248.468233 1789.950868,212.744243 1786.341959,164.883918 1783.708126,132.162720 1781.200312,97.025460 1778.878601,70.111244 1776.318316,41.050995 1773.798672,10.755072 1762.937618,-6.207793 1845.398166,-17.241525 1843.220213,-15.988731"/>
    <poly id="104256693" type="landuse" color="194,194,130" fill="1" layer="-3.00" shape="1434.290444,1454.826024 1438.048329,1459.080344 1440.221220,1464.326894 1440.570639,1470.000009 1439.053524,1475.465668 1435.842181,1480.143751 1431.280306,1483.541787 1425.857784,1485.266281 1420.173760,1485.145437 1414.835145,1483.185463 1410.425278,1479.604210 1407.415082,1474.787382 1406.137499,1469.255351 1406.730155,1463.607982 1409.128491,1458.457913 1413.071538,1454.363727 1418.126748,1451.774111 1423.758986,1450.960511 1429.349494,1452.016980 1434.290444,1454.826024"/>
    <poly id="104256694" type="landuse" color="194,194,130" fill="1" layer="-3.00" shape="2826.556747,1184.291640 2871.421761,1175.150270 2870.349970,1168.213949 2831.238340,1175.796935 2825.999886,1178.542149 2826.556747,1184.291640"/>
    <poly id="104276881" type="landuse" color="194,194,130" fill="1" layer="-3.00" shape="1382.610262,1466.330095 1383.372542,1476.128829 1385.676345,1483.477730 1387.882790,1488.957697 1391.479957,1493.658455 1396.262860,1498.026842 1398.936132,1493.264061 1399.248662,1489.711275 1398.539341,1485.654833 1396.311330,1482.968492 1392.903979,1480.625603 1390.670452,1477.260422 1390.303006,1474.047034 1389.431225,1471.004679 1387.376581,1468.650815 1382.610262,1466.330095"/>
    <poly id="104276882" type="landuse" color="194,194,130" fill="1" layer="-3.00" shape="1410.411234,1506.704195 1427.719935,1509.101292 1426.841328,1505.213158 1425.297374,1502.688196 1423.084459,1501.860314 1419.869829,1502.231393 1412.763760,1504.481507 1410.411234,1506.704195"/>
    <poly id="104357925" type="amenity" color="237,199,199" fill="1" layer="-1.00" shape="1337.522342,1549.209112 1329.048749,1543.412857 1334.046753,1536.138166 1342.520353,1541.934431 1340.327457,1545.124110 1337.522342,1549.209112"/>
    <poly id="104357925#1" type="building" color="255,230,230" fill="1" layer="-1.00" shape="1337.522342,1549.209112 1329.048749,1543.412857 1334.046753,1536.138166 1342.520353,1541.934431 1340.327457,1545.124110 1337.522342,1549.209112"/>
    <poly id="104357926" type="building" color="255,230,230" fill="1" layer="-1.00" shape="1373.700419,1447.304545 1382.453419,1448.568989 1384.286539,1444.658848 1387.299819,1439.726360 1392.516487,1434.442111 1396.554900,1431.192965 1401.576987,1427.635349 1377.264215,1366.921988 1349.924210,1377.972887 1355.525807,1392.829518 1357.541188,1391.900541 1373.277529,1432.595030 1374.949393,1432.959850 1374.457730,1438.584145 1373.700419,1447.304545"/>
    <poly id="104357927" type="building" color="255,230,230" fill="1" layer="-1.00" shape="1339.844855,1548.745060 1350.188192,1555.928435 1341.552708,1568.318769 1331.209385,1561.135415 1339.844855,1548.745060"/>
    <poly id="104357930" type="building" color="255,230,230" fill="1" layer="-1.00" shape="1417.081597,1562.185346 1421.697544,1562.348235 1425.765464,1561.970236 1430.507114,1561.264029 1434.733878,1560.205863 1438.455054,1559.162929 1428.706436,1530.973517 1423.444089,1529.836483 1425.203946,1513.773746 1408.909341,1511.702310 1402.040793,1543.220602 1402.024727,1561.495062 1416.618716,1563.569135 1417.081597,1562.185346"/>
    <poly id="104357930#1" type="shop" color="237,199,255" fill="1" layer="-1.00" shape="1417.081597,1562.185346 1421.697544,1562.348235 1425.765464,1561.970236 1430.507114,1561.264029 1434.733878,1560.205863 1438.455054,1559.162929 1428.706436,1530.973517 1423.444089,1529.836483 1425.203946,1513.773746 1408.909341,1511.702310 1402.040793,1543.220602 1402.024727,1561.495062 1416.618716,1563.569135 1417.081597,1562.185346"/>
    <poly id="104358284" type="building" color="255,230,230" fill="1" layer="-1.00" shape="1374.234515,1483.492726 1360.301086,1474.056950 1330.135096,1518.418715 1344.068452,1527.854397 1374.234515,1483.492726"/>
    <poly id="104358764" type="building" color="255,230,230" fill="1" layer="-1.00" shape="1346.949974,1444.494689 1356.601201,1443.492532 1355.949786,1437.232023 1346.298544,1438.234181 1346.949974,1444.494689"/>
    <poly id="104358788" type="amenity" color="237,199,199" fill="1" layer="-1.00" shape="1446.364619,1404.123191 1432.686774,1403.610818 1427.412983,1403.419862 1413.393696,1402.899189 1414.014570,1389.817215 1427.743031,1390.329120 1433.124389,1390.530334 1446.707456,1391.043476 1446.364619,1404.123191"/>
    <poly id="104358788#1" type="building" color="255,230,230" fill="1" layer="-1.00" shape="1446.364619,1404.123191 1432.686774,1403.610818 1427.412983,1403.419862 1413.393696,1402.899189 1414.014570,1389.817215 1427.743031,1390.329120 1433.124389,1390.530334 1446.707456,1391.043476 1446.364619,1404.123191"/>
    <poly id="104358789" type="amenity" color="237,199,199" fill="1" layer="-1.00" shape="1328.080953,1362.970061 1334.700404,1362.270743 1335.473965,1369.554153 1328.854525,1370.253470 1328.080953,1362.970061"/>
    <poly id="104358789#1" type="building" color="255,230,230" fill="1" layer="-1.00" shape="1328.080953,1362.970061 1334.700404,1362.270743 1335.473965,1369.554153 1328.854525,1370.253470 1328.080953,1362.970061"/>
    <poly id="104358983" type="landuse" color="194,194,130" fill="1" layer="-3.00" shape="1418.573564,1428.142964 1425.349335,1427.242186 1431.291784,1428.039830 1435.536539,1429.185124 1433.358692,1431.907202 1427.606141,1433.478558 1422.868595,1434.707811 1420.305999,1432.858870 1418.573564,1428.142964"/>
    <poly id="104359094" type="landuse" color="194,194,130" fill="1" layer="-3.00" shape="1387.978644,1502.323222 1383.530299,1497.117429 1379.745921,1490.381533 1377.362322,1489.555060 1373.011468,1496.357013 1374.545785,1497.691200 1371.038340,1502.483029 1369.321888,1501.295004 1362.779296,1510.652253 1364.452041,1511.907406 1361.198095,1516.775090 1359.431077,1515.587480 1355.913553,1520.691025 1357.686801,1521.867454 1354.603989,1526.789399 1352.728250,1525.446865 1350.717653,1528.512634 1352.765416,1530.020710 1349.245108,1534.779275 1359.824337,1542.984652 1387.978644,1502.323222"/>
    <poly id="104359095" type="building" color="255,230,230" fill="1" layer="-1.00" shape="1486.864109,1464.639083 1489.501050,1476.459321 1481.551494,1478.382271 1478.907395,1487.540841 1472.903428,1499.431043 1467.192055,1506.076980 1465.817971,1504.229515 1457.183095,1505.824182 1465.905751,1535.357481 1508.893472,1526.217334 1511.010953,1536.350132 1459.049903,1547.421545 1446.686216,1507.767834 1453.935463,1502.122177 1461.989822,1492.073932 1465.326737,1484.946402 1467.808871,1477.647730 1469.428931,1468.497447 1486.864109,1464.639083"/>
    <poly id="104359098" type="building" color="255,230,230" fill="1" layer="-1.00" shape="1501.801471,1441.146645 1465.917091,1450.129145 1460.408619,1439.689958 1454.598451,1434.150118 1450.502907,1431.133873 1470.009978,1390.376132 1481.753024,1395.522947 1469.739877,1419.470328 1467.356257,1418.643806 1463.360858,1427.991399 1471.577887,1437.228947 1500.032925,1431.957019 1501.801471,1441.146645"/>
    <poly id="104359207" type="building" color="255,230,230" fill="1" layer="-1.00" shape="1282.985671,1536.575852 1279.717650,1541.254514 1309.641995,1562.067621 1312.910032,1557.388981 1282.985671,1536.575852"/>
    <poly id="104359210" type="landuse" color="194,194,130" fill="1" layer="-3.00" shape="1331.672437,1499.909298 1349.763774,1473.363515 1317.187462,1470.078111 1311.787295,1472.993400 1308.472150,1481.990597 1314.443985,1487.183922 1316.928494,1489.534256 1318.718479,1491.211353 1331.672437,1499.909298"/>
    <poly id="104359212" type="natural" color="140,196,107" fill="1" layer="-4.00" shape="1330.165525,1501.947085 1331.672437,1499.909298 1318.718479,1491.211353 1316.928494,1489.534256 1314.443985,1487.183922 1308.472150,1481.990597 1311.787295,1472.993400 1317.187462,1470.078111 1349.763774,1473.363515 1352.922003,1466.827204 1314.091073,1464.004434 1309.701014,1466.755699 1303.391900,1483.044699 1330.165525,1501.947085"/>
    <poly id="104359216" type="parking" color="184,184,179" fill="1" layer="-1.00" shape="1329.163409,1504.648527 1303.250117,1486.596103 1299.391295,1491.702471 1295.741735,1501.548227 1320.129773,1518.611372 1320.402001,1517.106701 1329.163409,1504.648527"/>
    <poly id="104359217" type="building" color="255,230,230" fill="1" layer="-1.00" shape="1284.638078,1529.895940 1314.435785,1550.676722 1317.560171,1546.210712 1287.762450,1525.429908 1284.638078,1529.895940"/>
    <poly id="104359218" type="parking" color="184,184,179" fill="1" layer="-1.00" shape="1295.611008,1506.457318 1329.711962,1530.130193 1331.275894,1531.219279 1321.840026,1545.463626 1320.218935,1544.341620 1287.599722,1521.747429 1290.619725,1517.660646 1292.423837,1510.200450 1295.611008,1506.457318"/>
    <poly id="104359219" type="landuse" color="194,194,130" fill="1" layer="-3.00" shape="1295.741735,1501.548227 1291.068975,1510.723426 1292.423837,1510.200450 1295.611008,1506.457318 1329.711962,1530.130193 1331.891130,1526.807069 1320.129773,1518.611372 1295.741735,1501.548227"/>
    <poly id="104359584" type="landuse" color="194,194,130" fill="1" layer="-3.00" shape="1378.917045,1555.683935 1377.213348,1554.506933 1405.865297,1512.839939 1407.902033,1512.990353 1378.917045,1555.683935"/>
    <poly id="104359900" type="parking" color="184,184,179" fill="1" layer="-1.00" shape="1377.500989,1560.347486 1385.714508,1565.266730 1396.354903,1570.121774 1410.624237,1573.478333 1422.424951,1574.094888 1429.677277,1573.524129 1438.135023,1571.930842 1435.694195,1563.258638 1428.842596,1564.916810 1421.895017,1565.652039 1412.897006,1564.545316 1403.561180,1563.096345 1391.825349,1558.795511 1389.181270,1557.025154 1382.723718,1552.714889 1377.500989,1560.347486"/>
    <poly id="104359902" type="parking" color="184,184,179" fill="1" layer="-1.00" shape="1383.754486,1551.204063 1389.964527,1555.393917 1392.494286,1557.098426 1402.024727,1561.495062 1402.040793,1543.220602 1403.187515,1532.627322 1402.552611,1523.717896 1383.754486,1551.204063"/>
    <poly id="104362258" type="landuse" color="194,194,130" fill="1" layer="-3.00" shape="1321.037448,1555.597829 1319.056863,1553.799859 1321.564871,1549.717261 1320.537594,1548.545909 1322.218668,1546.161693 1323.746195,1546.661219 1326.766214,1542.574460 1329.048749,1543.412857 1322.511103,1553.359981 1321.037448,1555.597829"/>
    <poly id="104362259" type="landuse" color="194,194,130" fill="1" layer="-3.00" shape="1329.163409,1504.648527 1330.165525,1501.947085 1303.391900,1483.044699 1299.391295,1491.702471 1303.250117,1486.596103 1329.163409,1504.648527"/>
    <poly id="104362260" type="landuse" color="194,194,130" fill="1" layer="-3.00" shape="1290.619725,1517.660646 1288.572025,1516.163728 1283.244167,1528.727581 1284.638078,1529.895940 1287.762450,1525.429908 1317.560171,1546.210712 1318.833878,1547.368929 1320.218935,1544.341620 1287.599722,1521.747429 1290.619725,1517.660646"/>
    <poly id="104367739" type="building" color="255,230,230" fill="1" layer="-1.00" shape="2273.592698,359.235904 2277.433949,360.429729 2280.615385,358.946623 2280.953841,355.371451 2278.839888,352.717153 2276.089258,349.511430 2273.932837,348.682669 2271.432294,349.114240 2270.574994,351.046387 2271.788167,354.932029 2273.592698,359.235904"/>
    <poly id="104368321" type="tourism" color="207,245,201" fill="1" layer="-2.00" shape="2668.168045,306.817521 2653.176539,306.912572 2623.470869,303.761878 2593.943810,301.622747 2552.484062,292.131992 2523.261159,285.261012 2521.712413,282.902648 2522.493137,274.427150 2528.627511,272.119721 2622.577747,287.420000 2666.868523,286.194052 2667.908385,302.723987 2668.168045,306.817521"/>
    <poly id="104368332" type="leisure" color="207,245,201" fill="1" layer="-2.00" shape="2459.050399,336.860367 2456.358451,307.355630 2516.039222,305.272514 2524.376948,308.167387 2533.478002,310.032389 2541.197925,355.846562 2459.050399,336.860367"/>
    <poly id="1064466847" type="amenity" color="237,199,199" fill="1" layer="-1.00" shape="1442.496752,1376.164330 1444.256536,1372.555301 1442.549262,1371.723311 1440.789569,1375.343469 1442.496752,1376.164330"/>
    <poly id="1064466848" type="amenity" color="237,199,199" fill="1" layer="-1.00" shape="1439.690759,1374.706875 1441.450451,1371.086717 1439.736945,1370.265907 1437.983485,1373.874887 1439.690759,1374.706875"/>
    <poly id="1064903741" type="amenity" color="237,199,199" fill="1" layer="-1.00" shape="2696.974052,912.290960 2695.980375,907.301690 2694.137158,907.672238 2695.130837,912.661508 2696.974052,912.290960"/>
    <poly id="1064903742" type="amenity" color="237,199,199" fill="1" layer="-1.00" shape="2469.602536,483.761470 2469.107030,478.645909 2467.230373,478.805357 2467.725881,483.920918 2469.602536,483.761470"/>
    <poly id="1064903743" type="amenity" color="237,199,199" fill="1" layer="-1.00" shape="2578.522155,1248.665948 2583.458184,1247.692363 2583.147020,1245.902991 2578.210990,1246.876577 2578.522155,1248.665948"/>
    <poly id="1064903745" type="amenity" color="237,199,199" fill="1" layer="-1.00" shape="2579.962954,1255.844153 2584.898975,1254.870569 2584.587812,1253.081198 2579.651790,1254.054782 2579.962954,1255.844153"/>
    <poly id="1064903746" type="amenity" color="237,199,199" fill="1" layer="-1.00" shape="2009.815917,548.547805 2013.409197,545.614414 2010.529556,542.098264 2006.929952,545.031708 2009.815917,548.547805"/>
    <poly id="1064903749" type="amenity" color="237,199,199" fill="1" layer="-1.00" shape="2691.453212,908.060491 2692.524845,913.316252 2740.908212,903.444929 2739.830312,898.189205 2691.453212,908.060491"/>
    <poly id="1064903750" type="amenity" color="237,199,199" fill="1" layer="-1.00" shape="2582.920253,1243.589882 2577.542418,1244.655969 2581.372019,1263.812786 2586.743510,1262.746753 2582.920253,1243.589882"/>
    <poly id="1064903754" type="amenity" color="237,199,199" fill="1" layer="-1.00" shape="2581.613316,1263.143136 2586.549328,1262.169554 2586.238167,1260.380183 2581.302152,1261.353765 2581.613316,1263.143136"/>
    <poly id="1064903755" type="amenity" color="237,199,199" fill="1" layer="-1.00" shape="2578.950512,1250.888442 2583.886538,1249.914857 2583.575374,1248.125485 2578.639346,1249.099070 2578.950512,1250.888442"/>
    <poly id="1064903756" type="amenity" color="237,199,199" fill="1" layer="-1.00" shape="2701.733558,911.330022 2700.739886,906.340751 2698.896667,906.711297 2699.890341,911.700568 2701.733558,911.330022"/>
    <poly id="1064903757" type="amenity" color="237,199,199" fill="1" layer="-1.00" shape="2578.157537,1246.509731 2583.093567,1245.536145 2582.782403,1243.746773 2577.846371,1244.720359 2578.157537,1246.509731"/>
    <poly id="1064903759" type="amenity" color="237,199,199" fill="1" layer="-1.00" shape="2459.742278,479.387366 2460.246219,484.769963 2469.900658,483.881546 2469.402964,478.487770 2459.742278,479.387366"/>
    <poly id="1064903760" type="amenity" color="237,199,199" fill="1" layer="-1.00" shape="2580.410710,1258.122141 2585.346728,1257.148558 2585.035566,1255.359186 2580.099546,1256.332769 2580.410710,1258.122141"/>
    <poly id="1064903761" type="amenity" color="237,199,199" fill="1" layer="-1.00" shape="2699.385197,911.782422 2698.391522,906.793151 2696.548304,907.163699 2697.541981,912.152968 2699.385197,911.782422"/>
    <poly id="1064903764" type="amenity" color="237,199,199" fill="1" layer="-1.00" shape="2462.210074,484.442886 2461.714560,479.327325 2459.837904,479.486777 2460.333421,484.602337 2462.210074,484.442886"/>
    <poly id="1064903765" type="amenity" color="237,199,199" fill="1" layer="-1.00" shape="2580.979620,1260.532729 2585.915636,1259.559147 2585.604474,1257.769775 2580.668457,1258.743358 2580.979620,1260.532729"/>
    <poly id="1064903766" type="amenity" color="237,199,199" fill="1" layer="-1.00" shape="2694.644745,912.754342 2693.651066,907.765073 2691.807848,908.135622 2692.801530,913.124891 2694.644745,912.754342"/>
    <poly id="1064903767" type="amenity" color="237,199,199" fill="1" layer="-1.00" shape="2008.339370,546.545180 2011.700052,543.780581 2010.506218,542.343294 2007.145447,545.096765 2008.339370,546.545180"/>
    <poly id="1064903768" type="amenity" color="237,199,199" fill="1" layer="-1.00" shape="2009.756797,548.270045 2013.117478,545.505447 2011.923645,544.068159 2008.562875,546.821630 2009.756797,548.270045"/>
    <poly id="1064903769" type="amenity" color="237,199,199" fill="1" layer="-1.00" shape="2579.424428,1253.277517 2584.360451,1252.303932 2584.049288,1250.514561 2579.113263,1251.488145 2579.424428,1253.277517"/>
    <poly id="1064903770" type="amenity" color="237,199,199" fill="1" layer="-1.00" shape="2464.793977,484.166577 2464.298466,479.051016 2462.421809,479.210466 2462.917322,484.326027 2464.793977,484.166577"/>
    <poly id="1064903771" type="amenity" color="237,199,199" fill="1" layer="-1.00" shape="2467.182493,483.969711 2466.686985,478.854150 2464.810329,479.013600 2465.305839,484.129161 2467.182493,483.969711"/>
    <poly id="1071099183" type="leisure" color="207,245,201" fill="1" layer="-2.00" shape="2372.108740,1583.489885 2350.566265,1587.577504 2354.180271,1606.557775 2375.722655,1602.470174 2372.108740,1583.489885"/>
    <poly id="1077109326" type="leisure" color="207,245,201" fill="1" layer="-2.00" shape="1239.184806,1243.474941 1288.736873,1159.746191 1301.164026,1161.069611 1344.360625,1271.343670 1338.616395,1273.961228 1278.339025,1255.476121 1239.184806,1243.474941"/>
    <poly id="1077109326#1" type="sport" color="79,230,125" fill="1" layer="-2.00" shape="1239.184806,1243.474941 1288.736873,1159.746191 1301.164026,1161.069611 1344.360625,1271.343670 1338.616395,1273.961228 1278.339025,1255.476121 1239.184806,1243.474941"/>
    <poly id="1084496874" type="forest" color="140,196,107" fill="1" layer="-4.00" shape="1710.700818,1251.320470 1707.935199,1262.739117 1710.439275,1276.964475 1717.915892,1287.710889 1727.258430,1293.868172 1741.869895,1296.455140 1752.622020,1293.942555 1763.109045,1286.757822 1771.400115,1271.410714 1770.932133,1255.644260 1765.382384,1244.726472 1751.854593,1234.618443 1735.326571,1232.714603 1725.181108,1236.001401 1716.359482,1242.749916 1710.700818,1251.320470"/>
    <poly id="1084496875" type="leisure" color="207,245,201" fill="1" layer="-2.00" shape="1787.055019,1291.362284 1841.116707,1279.254068 1835.321137,1248.683831 1816.179854,1259.877555 1800.858868,1264.207324 1784.439200,1277.360368 1787.055019,1291.362284"/>
    <poly id="1084496876" type="leisure" color="207,245,201" fill="1" layer="-2.00" shape="1791.055104,1233.658173 1793.681068,1247.348390 1811.197360,1244.002625 1808.577770,1230.312346 1791.055104,1233.658173"/>
    <poly id="1084496876#1" type="sport" color="79,230,125" fill="1" layer="-2.00" shape="1791.055104,1233.658173 1793.681068,1247.348390 1811.197360,1244.002625 1808.577770,1230.312346 1791.055104,1233.658173"/>
    <poly id="1095660468" type="building" color="255,230,230" fill="1" layer="-1.00" shape="2326.755565,1002.309893 2323.692719,987.543293 2333.539093,985.484472 2331.397018,975.229078 2312.518341,979.162245 2318.097112,1004.281434 2326.755565,1002.309893"/>
    <poly id="1099629751" type="amenity" color="237,199,199" fill="1" layer="-1.00" shape="2859.063068,560.176913 2856.102960,560.856571 2855.631552,558.779069 2858.572607,558.088430 2859.063068,560.176913"/>
    <poly id="1099629752" type="amenity" color="237,199,199" fill="1" layer="-1.00" shape="2861.896901,559.520497 2861.400119,557.432063 2858.572607,558.088430 2859.063068,560.176913 2861.896901,559.520497"/>
    <poly id="1099629753" type="amenity" color="237,199,199" fill="1" layer="-1.00" shape="2864.099617,559.013674 2866.731480,558.403350 2866.175635,556.037143 2863.537448,556.647517 2863.602837,556.925239 2864.099617,559.013674"/>
    <poly id="1099629754" type="amenity" color="237,199,199" fill="1" layer="-1.00" shape="2863.602837,556.925239 2864.099617,559.013674 2861.896901,559.520497 2861.400119,557.432063 2863.602837,556.925239"/>
    <poly id="1099629755" type="amenity" color="237,199,199" fill="1" layer="-1.00" shape="2867.235188,560.569636 2867.882835,563.358040 2865.762312,563.864222 2865.938817,564.608509 2858.276738,566.382024 2857.936369,564.893353 2856.102960,560.856571 2859.063068,560.176913 2861.896901,559.520497 2864.099617,559.013674 2866.731480,558.403350 2866.927732,559.247646 2867.235188,560.569636"/>
    <poly id="1099629756" type="amenity" color="237,199,199" fill="1" layer="-1.00" shape="2865.724411,554.115293 2866.175635,556.037143 2863.537448,556.647517 2863.105190,554.725519 2865.724411,554.115293"/>
    <poly id="1099629757" type="amenity" color="237,199,199" fill="1" layer="-1.00" shape="2857.859910,555.066818 2854.502179,555.838606 2855.208729,558.882523 2855.631552,558.779069 2858.572607,558.088430 2857.859910,555.066818"/>
    <poly id="1099629758" type="amenity" color="237,199,199" fill="1" layer="-1.00" shape="2865.528245,553.282125 2865.724411,554.115293 2863.105190,554.725519 2863.537448,556.647517 2863.602837,556.925239 2861.400119,557.432063 2858.572607,558.088430 2857.859910,555.066818 2854.502179,555.838606 2854.274918,555.884891 2853.921556,554.351804 2853.313305,551.752293 2864.566642,549.149524 2865.220615,551.937878 2865.528245,553.282125"/>
    <poly id="110601310" type="building" color="255,230,230" fill="1" layer="-1.00" shape="2764.512154,842.216693 2752.467812,844.625576 2758.631855,875.372128 2784.260783,870.264184 2782.445270,861.219126 2782.149063,859.718986 2768.570774,862.429149 2764.512154,842.216693"/>
    <poly id="110601311" type="building" color="255,230,230" fill="1" layer="-1.00" shape="2724.875944,812.944574 2725.929960,817.566113 2722.214008,818.585646 2723.135498,822.429171 2727.492060,821.671737 2728.183691,825.227697 2729.258091,825.174788 2732.911012,840.371085 2726.434963,841.746050 2728.346757,851.769710 2729.887587,851.535089 2730.007990,852.379972 2744.153965,849.498319 2734.887648,802.838913 2732.680526,801.954680 2645.665681,819.874354 2644.597420,821.518720 2653.984306,867.308921 2654.391775,869.286740 2664.448058,867.338315 2664.007590,865.182685 2656.400544,827.870159 2724.875944,812.944574"/>
    <poly id="1106155847" type="amenity" color="237,199,199" fill="1" layer="-1.00" shape="1801.277429,887.688904 1811.932116,885.511138 1811.234678,882.111169 1800.554071,884.211239 1801.277429,887.688904"/>
    <poly id="1106155848" type="amenity" color="237,199,199" fill="1" layer="-1.00" shape="1793.030418,888.934774 1798.433977,887.889783 1797.781050,884.522847 1792.377398,885.556710 1793.030418,888.934774"/>
    <poly id="1107915498" type="building" color="255,230,230" fill="1" layer="-1.00" shape="2245.059227,1462.628978 2245.910536,1467.151853 2246.604890,1467.023930 2247.476130,1471.669069 2245.632921,1472.006421 2246.161180,1474.851332 2242.803110,1475.478919 2240.546057,1463.477175 2245.059227,1462.628978"/>
    <poly id="1107915499" type="building" color="255,230,230" fill="1" layer="-1.00" shape="2199.911783,1470.710622 2199.152489,1467.433506 2201.405157,1466.914818 2202.164449,1470.191935 2199.911783,1470.710622"/>
    <poly id="1107915500" type="building" color="255,230,230" fill="1" layer="-1.00" shape="2187.379351,1475.885014 2186.731798,1472.351040 2191.017831,1471.560236 2191.671702,1475.094161 2187.379351,1475.885014"/>
    <poly id="1107915501" type="building" color="255,230,230" fill="1" layer="-1.00" shape="2110.758963,1504.828896 2108.991060,1496.351310 2112.228553,1495.668933 2114.002859,1504.157599 2110.758963,1504.828896"/>