<?xml version="1.0" encoding="UTF-8"?>

<!-- generated on 2023-11-08 14:34:08 by Eclipse SUMO netconvert Version v1_18_0+2302-d2b4eb5e0e7
<configuration xmlns:xsi="http://www.w3.org/2001/XMLSchema-instance" xsi:noNamespaceSchemaLocation="http://sumo.dlr.de/xsd/netconvertConfiguration.xsd">

    <input>
        <osm-files value="katrinebjerg/katrinebjerg.osm"/>
    </input>

    <output>
        <output-file value="katrinebjerg/katrinebjerg.net.xml"/>
    </output>

    <projection>
        <proj.utm value="true"/>
    </projection>

    <tls_building>
        <tls.discard-simple value="true"/>
        <tls.default-type value="actuated"/>
    </tls_building>

    <junctions>
        <no-turnarounds value="true"/>
        <junctions.join value="true"/>
    </junctions>

</configuration>
-->

<net version="1.16" junctionCornerDetail="5" limitTurnSpeed="5.50" xmlns:xsi="http://www.w3.org/2001/XMLSchema-instance" xsi:noNamespaceSchemaLocation="http://sumo.dlr.de/xsd/net_file.xsd">

    <location netOffset="-573333.86,-6225395.52" convBoundary="0.00,0.00,1132.06,982.84" origBoundary="10.181197,56.167818,10.199343,56.176660" projParameter="+proj=utm +zone=32 +ellps=WGS84 +datum=WGS84 +units=m +no_defs"/>

    <type id="highway.cycleway" priority="1" numLanes="1" speed="5.56" allow="bicycle" oneway="0" width="2.00"/>
    <type id="highway.footway" priority="1" numLanes="1" speed="2.78" allow="pedestrian" oneway="1" width="2.00"/>
    <type id="highway.path" priority="1" numLanes="1" speed="5.56" allow="pedestrian bicycle" oneway="0" width="2.00"/>
    <type id="highway.pedestrian" priority="1" numLanes="1" speed="2.78" allow="pedestrian" oneway="1" width="2.00"/>
    <type id="highway.residential" priority="3" numLanes="1" speed="13.89" disallow="tram rail_urban rail rail_electric rail_fast ship" oneway="0"/>
    <type id="highway.service" priority="1" numLanes="1" speed="5.56" allow="pedestrian delivery bicycle" oneway="0"/>
    <type id="highway.steps" priority="1" numLanes="1" speed="1.39" allow="pedestrian" oneway="1" width="2.00"/>
    <type id="highway.tertiary" priority="10" numLanes="1" speed="22.22" disallow="tram rail_urban rail rail_electric rail_fast ship" oneway="0"/>
    <type id="highway.unclassified" priority="4" numLanes="1" speed="13.89" disallow="tram rail_urban rail rail_electric rail_fast ship" oneway="0"/>

    <edge id=":10235068896_0" function="internal">
        <lane id=":10235068896_0_0" index="0" allow="pedestrian delivery bicycle" speed="5.56" length="5.00" shape="342.96,605.84 338.07,606.91"/>
    </edge>
    <edge id=":10235068896_1" function="internal">
        <lane id=":10235068896_1_0" index="0" allow="pedestrian delivery bicycle" speed="5.56" length="5.00" shape="337.39,603.78 342.27,602.71"/>
    </edge>
    <edge id=":1027237901_0" function="internal">
        <lane id=":1027237901_0_0" index="0" allow="pedestrian delivery bicycle" speed="5.04" length="5.03" shape="612.62,547.28 612.15,545.99 611.38,545.16 610.30,544.79 608.92,544.89"/>
    </edge>
    <edge id=":1027237901_1" function="internal">
        <lane id=":1027237901_1_0" index="0" disallow="tram rail_urban rail rail_electric rail_fast ship" speed="13.89" length="9.44" shape="612.62,547.28 610.60,538.06"/>
    </edge>
    <edge id=":1027237901_2" function="internal">
        <lane id=":1027237901_2_0" index="0" disallow="tram rail_urban rail rail_electric rail_fast ship" speed="13.89" length="9.51" shape="613.72,537.34 615.75,546.64"/>
    </edge>
    <edge id=":1027237901_3" function="internal">
        <lane id=":1027237901_3_0" index="0" allow="pedestrian delivery bicycle" speed="6.85" length="3.35" shape="613.72,537.34 613.96,540.14 613.79,540.65"/>
    </edge>
    <edge id=":1027237901_6" function="internal">
        <lane id=":1027237901_6_0" index="0" allow="pedestrian delivery bicycle" speed="6.85" length="6.89" shape="613.79,540.65 613.24,542.34 611.56,543.92 608.92,544.89"/>
    </edge>
    <edge id=":1027237901_4" function="internal">
        <lane id=":1027237901_4_0" index="0" allow="pedestrian delivery bicycle" speed="5.02" length="5.02" shape="608.25,541.76 609.54,541.28 610.37,540.51 610.72,539.43 610.60,538.06"/>
    </edge>
    <edge id=":1027237901_5" function="internal">
        <lane id=":1027237901_5_0" index="0" allow="pedestrian delivery bicycle" speed="6.86" length="10.22" shape="608.25,541.76 611.05,541.57 613.24,542.32 614.80,544.01 615.75,546.64"/>
    </edge>
    <edge id=":1027237908_0" function="internal">
        <lane id=":1027237908_0_0" index="0" allow="bicycle" speed="4.40" length="4.05" width="2.00" shape="597.63,511.98 597.25,510.94 596.62,510.28 595.75,510.00 594.64,510.11"/>
    </edge>
    <edge id=":1027237908_1" function="internal">
        <lane id=":1027237908_1_0" index="0" allow="bicycle" speed="5.56" length="9.43" width="2.00" shape="597.63,511.98 595.64,502.76"/>
    </edge>
    <edge id=":1027237908_2" function="internal">
        <lane id=":1027237908_2_0" index="0" allow="bicycle" speed="5.56" length="7.95" width="2.00" shape="597.63,511.98 597.14,508.98 597.14,506.76 597.63,505.33 598.61,504.67"/>
    </edge>
    <edge id=":1027237908_3" function="internal">
        <lane id=":1027237908_3_0" index="0" allow="pedestrian delivery bicycle" speed="5.56" length="5.07" shape="599.43,508.38 594.50,509.53"/>
    </edge>
    <edge id=":1027237908_4" function="internal">
        <lane id=":1027237908_4_0" index="0" allow="bicycle" speed="5.56" length="6.82" width="2.00" shape="599.30,507.79 598.15,507.68 597.16,506.80 596.32,505.16 595.64,502.76"/>
    </edge>
    <edge id=":1027237908_5" function="internal">
        <lane id=":1027237908_5_0" index="0" allow="bicycle" speed="4.73" length="4.19" width="2.00" shape="593.59,505.84 594.69,505.41 595.39,504.75 595.71,503.87 595.64,502.76"/>
    </edge>
    <edge id=":1027237908_6" function="internal">
        <lane id=":1027237908_6_0" index="0" allow="pedestrian delivery bicycle" speed="5.56" length="5.14" shape="593.74,506.42 598.74,505.25"/>
    </edge>
    <edge id=":1027238039_0" function="internal">
        <lane id=":1027238039_0_0" index="0" allow="bicycle" speed="4.41" length="4.05" width="2.00" shape="605.60,548.80 605.22,547.75 604.59,547.09 603.72,546.82 602.61,546.93"/>
    </edge>
    <edge id=":1027238039_1" function="internal">
        <lane id=":1027238039_1_0" index="0" allow="bicycle" speed="5.56" length="9.42" width="2.00" shape="605.60,548.80 603.61,539.59"/>
    </edge>
    <edge id=":1027238039_2" function="internal">
        <lane id=":1027238039_2_0" index="0" allow="bicycle" speed="5.56" length="7.95" width="2.00" shape="605.60,548.80 605.12,545.80 605.12,543.59 605.61,542.15 606.60,541.50"/>
    </edge>
    <edge id=":1027238039_3" function="internal">
        <lane id=":1027238039_3_0" index="0" allow="pedestrian delivery bicycle" speed="5.56" length="5.05" shape="607.39,545.22 602.47,546.34"/>
    </edge>
    <edge id=":1027238039_4" function="internal">
        <lane id=":1027238039_4_0" index="0" allow="bicycle" speed="5.56" length="6.82" width="2.00" shape="607.27,544.63 606.12,544.51 605.13,543.63 604.29,541.99 603.61,539.59"/>
    </edge>
    <edge id=":1027238039_5" function="internal">
        <lane id=":1027238039_5_0" index="0" allow="bicycle" speed="4.72" length="4.17" width="2.00" shape="601.57,542.65 602.66,542.22 603.36,541.57 603.68,540.69 603.61,539.59"/>
    </edge>
    <edge id=":1027238039_6" function="internal">
        <lane id=":1027238039_6_0" index="0" allow="pedestrian delivery bicycle" speed="5.56" length="5.14" shape="601.71,543.23 606.72,542.09"/>
    </edge>
    <edge id=":1027238410_0" function="internal">
        <lane id=":1027238410_0_0" index="0" allow="pedestrian delivery bicycle" speed="5.07" length="5.04" shape="604.25,510.47 603.75,509.20 602.96,508.39 601.87,508.04 600.48,508.15"/>
    </edge>
    <edge id=":1027238410_1" function="internal">
        <lane id=":1027238410_1_0" index="0" disallow="tram rail_urban rail rail_electric rail_fast ship" speed="13.89" length="9.40" shape="604.25,510.47 602.12,501.31"/>
    </edge>
    <edge id=":1027238410_2" function="internal">
        <lane id=":1027238410_2_0" index="0" disallow="tram rail_urban rail rail_electric rail_fast ship" speed="13.89" length="9.41" shape="605.24,500.58 607.36,509.75"/>
    </edge>
    <edge id=":1027238410_3" function="internal">
        <lane id=":1027238410_3_0" index="0" allow="pedestrian delivery bicycle" speed="6.85" length="3.28" shape="605.24,500.58 605.48,503.38 605.33,503.83"/>
    </edge>
    <edge id=":1027238410_6" function="internal">
        <lane id=":1027238410_6_0" index="0" allow="pedestrian delivery bicycle" speed="6.85" length="6.93" shape="605.33,503.83 604.77,505.57 603.10,507.16 600.48,508.15"/>
    </edge>
    <edge id=":1027238410_4" function="internal">
        <lane id=":1027238410_4_0" index="0" allow="pedestrian delivery bicycle" speed="5.03" length="5.01" shape="599.79,505.02 601.07,504.54 601.89,503.76 602.24,502.68 602.12,501.31"/>
    </edge>
    <edge id=":1027238410_5" function="internal">
        <lane id=":1027238410_5_0" index="0" allow="pedestrian delivery bicycle" speed="6.89" length="10.17" shape="599.79,505.02 602.57,504.80 604.77,505.52 606.36,507.17 607.36,509.75"/>
    </edge>
    <edge id=":11149536878_0" function="internal">
        <lane id=":11149536878_0_0" index="0" allow="pedestrian delivery bicycle" speed="5.56" length="9.41" shape="603.19,579.06 594.17,581.74"/>
    </edge>
    <edge id=":11149536878_1" function="internal">
        <lane id=":11149536878_1_0" index="0" allow="pedestrian delivery bicycle" speed="5.56" length="10.43" shape="603.19,579.06 600.34,579.48 598.09,578.87 596.43,577.22 595.37,574.54"/>
    </edge>
    <edge id=":11149536878_2" function="internal">
        <lane id=":11149536878_2_0" index="0" allow="pedestrian delivery bicycle" speed="4.98" length="5.07" shape="598.49,573.80 599.00,575.10 599.80,575.90 600.90,576.20 602.28,576.00"/>
    </edge>
    <edge id=":11149536878_3" function="internal">
        <lane id=":11149536878_3_0" index="0" allow="pedestrian delivery bicycle" speed="5.56" length="10.18" shape="598.49,573.80 598.77,576.63 598.15,578.90 596.62,580.60 594.17,581.74"/>
    </edge>
    <edge id=":11149536878_4" function="internal">
        <lane id=":11149536878_4_0" index="0" allow="pedestrian delivery bicycle" speed="5.22" length="5.22" shape="593.26,578.67 594.48,578.09 595.24,577.21 595.53,576.03 595.37,574.54"/>
    </edge>
    <edge id=":11149536878_5" function="internal">
        <lane id=":11149536878_5_0" index="0" allow="pedestrian delivery bicycle" speed="5.56" length="9.41" shape="593.26,578.67 602.28,576.00"/>
    </edge>
    <edge id=":1883681572_0" function="internal">
        <lane id=":1883681572_0_0" index="0" allow="pedestrian delivery bicycle" speed="5.56" length="10.11" shape="528.53,437.57 528.75,440.32 528.04,442.50 526.40,444.09 523.82,445.10"/>
    </edge>
    <edge id=":1883681572_1" function="internal">
        <lane id=":1883681572_1_0" index="0" allow="pedestrian delivery bicycle" speed="5.05" length="4.99" shape="523.09,441.99 524.36,441.49 525.17,440.71 525.52,439.63 525.41,438.27"/>
    </edge>
    <edge id=":1883681676_0" function="internal">
        <lane id=":1883681676_0_0" index="0" allow="pedestrian delivery bicycle" speed="5.56" length="4.91" shape="474.88,576.43 473.78,571.64"/>
    </edge>
    <edge id=":1883681676_1" function="internal">
        <lane id=":1883681676_1_0" index="0" allow="pedestrian delivery bicycle" speed="5.56" length="4.97" shape="476.89,570.90 478.01,575.74"/>
    </edge>
    <edge id=":1883681688_0" function="internal">
        <lane id=":1883681688_0_0" index="0" allow="pedestrian delivery bicycle" speed="5.56" length="5.41" shape="478.51,598.96 478.10,598.07 477.29,597.20 476.09,596.37 474.49,595.57"/>
    </edge>
    <edge id=":1883681688_1" function="internal">
        <lane id=":1883681688_1_0" index="0" allow="pedestrian delivery bicycle" speed="5.56" length="5.76" shape="475.77,592.64 476.92,593.06 478.59,593.67 480.12,594.38 480.89,595.12"/>
    </edge>
    <edge id=":1883681698_0" function="internal">
        <lane id=":1883681698_0_0" index="0" allow="bicycle" speed="5.56" length="5.00" width="2.00" shape="521.20,632.26 526.01,630.89"/>
    </edge>
    <edge id=":2316163718_0" function="internal">
        <lane id=":2316163718_0_0" index="0" disallow="tram rail_urban rail rail_electric rail_fast ship" speed="13.89" length="9.40" shape="869.11,271.63 863.89,279.45"/>
    </edge>
    <edge id=":2316163718_1" function="internal">
        <lane id=":2316163718_1_0" index="0" allow="pedestrian delivery bicycle" speed="6.85" length="3.28" shape="869.11,271.63 867.24,273.72 866.81,273.92"/>
    </edge>
    <edge id=":2316163718_6" function="internal">
        <lane id=":2316163718_6_0" index="0" allow="pedestrian delivery bicycle" speed="6.85" length="6.96" shape="866.81,273.92 865.15,274.70 862.84,274.56 860.33,273.31"/>
    </edge>
    <edge id=":2316163718_2" function="internal">
        <lane id=":2316163718_2_0" index="0" allow="pedestrian delivery bicycle" speed="5.02" length="5.02" shape="862.14,270.68 863.38,271.29 864.51,271.36 865.53,270.88 866.45,269.85"/>
    </edge>
    <edge id=":2316163718_3" function="internal">
        <lane id=":2316163718_3_0" index="0" allow="pedestrian delivery bicycle" speed="6.90" length="10.16" shape="862.14,270.68 864.21,272.57 865.18,274.67 865.08,276.96 863.89,279.45"/>
    </edge>
    <edge id=":2316163718_4" function="internal">
        <lane id=":2316163718_4_0" index="0" allow="pedestrian delivery bicycle" speed="5.09" length="5.06" shape="861.23,277.67 861.81,276.44 861.86,275.30 861.36,274.26 860.33,273.31"/>
    </edge>
    <edge id=":2316163718_5" function="internal">
        <lane id=":2316163718_5_0" index="0" disallow="tram rail_urban rail rail_electric rail_fast ship" speed="13.89" length="9.40" shape="861.23,277.67 866.45,269.85"/>
    </edge>
    <edge id=":250993979_0" function="internal">
        <lane id=":250993979_0_0" index="0" allow="bicycle" speed="8.50" length="7.37" width="2.00" shape="537.68,57.91 541.02,57.87 543.23,57.63 544.30,57.19 544.23,56.55"/>
    </edge>
    <edge id=":250993984_0" function="internal">
        <lane id=":250993984_0_0" index="0" allow="pedestrian delivery bicycle" speed="6.17" length="6.17" shape="810.58,285.37 809.38,284.93 808.05,285.03 806.59,285.65 805.01,286.82"/>
    </edge>
    <edge id=":250993984_1" function="internal">
        <lane id=":250993984_1_0" index="0" disallow="tram rail_urban rail rail_electric rail_fast ship" speed="13.89" length="9.51" shape="810.58,285.37 802.72,280.03"/>
    </edge>
    <edge id=":250993984_2" function="internal">
        <lane id=":250993984_2_0" index="0" disallow="tram rail_urban rail rail_electric rail_fast ship" speed="13.89" length="9.29" shape="804.59,277.43 812.27,282.66"/>
    </edge>
    <edge id=":250993984_3" function="internal">
        <lane id=":250993984_3_0" index="0" allow="pedestrian delivery bicycle" speed="6.71" length="3.37" shape="804.59,277.43 806.92,279.68 806.96,279.80"/>
    </edge>
    <edge id=":250993984_6" function="internal">
        <lane id=":250993984_6_0" index="0" allow="pedestrian delivery bicycle" speed="6.71" length="8.03" shape="806.96,279.80 807.76,281.99 807.13,284.37 805.01,286.82"/>
    </edge>
    <edge id=":250993984_4" function="internal">
        <lane id=":250993984_4_0" index="0" allow="pedestrian delivery bicycle" speed="4.83" length="5.30" shape="802.91,284.40 803.90,283.26 804.19,282.15 803.80,281.08 802.72,280.03"/>
    </edge>
    <edge id=":250993984_5" function="internal">
        <lane id=":250993984_5_0" index="0" allow="pedestrian delivery bicycle" speed="7.77" length="10.25" shape="802.91,284.40 805.40,282.64 807.79,281.76 810.09,281.77 812.27,282.66"/>
    </edge>
    <edge id=":250993986_0" function="internal">
        <lane id=":250993986_0_0" index="0" disallow="tram rail_urban rail rail_electric rail_fast ship" speed="13.89" length="6.13" shape="889.71,333.47 884.39,330.43"/>
    </edge>
    <edge id=":250993986_1" function="internal">
        <lane id=":250993986_1_0" index="0" disallow="tram rail_urban rail rail_electric rail_fast ship" speed="13.89" length="5.99" shape="886.04,327.68 891.24,330.66"/>
    </edge>
    <edge id=":250993986_2" function="internal">
        <lane id=":250993986_2_0" index="0" allow="pedestrian delivery bicycle" speed="5.05" length="4.99" shape="885.47,334.67 885.99,333.41 885.98,332.28 885.45,331.29 884.39,330.43"/>
    </edge>
    <edge id=":250993986_3" function="internal">
        <lane id=":250993986_3_0" index="0" allow="pedestrian delivery bicycle" speed="6.13" length="7.70" shape="885.47,334.67 887.03,332.39 888.50,330.96 889.91,330.38 891.24,330.66"/>
    </edge>
    <edge id=":250993991_0" function="internal">
        <lane id=":250993991_0_0" index="0" allow="bicycle" speed="9.72" length="3.29" width="2.00" shape="888.87,241.07 888.51,241.93 888.53,242.64 888.55,243.34 888.19,244.21"/>
    </edge>
    <edge id=":250993991_1" function="internal">
        <lane id=":250993991_1_0" index="0" allow="bicycle" speed="9.72" length="3.31" width="2.00" shape="884.54,241.76 885.21,241.10 885.87,240.85 886.54,240.60 887.22,239.94"/>
    </edge>
    <edge id=":250993992_0" function="internal">
        <lane id=":250993992_0_0" index="0" disallow="tram rail_urban rail rail_electric rail_fast ship" speed="8.62" length="12.06" shape="850.45,310.05 847.74,308.93 844.97,308.79 842.15,309.63 839.26,311.45"/>
    </edge>
    <edge id=":250993992_1" function="internal">
        <lane id=":250993992_1_0" index="0" disallow="tram rail_urban rail rail_electric rail_fast ship" speed="13.89" length="15.93" shape="850.45,310.05 836.86,301.73"/>
    </edge>
    <edge id=":250993992_2" function="internal">
        <lane id=":250993992_2_0" index="0" disallow="tram rail_urban rail rail_electric rail_fast ship" speed="7.92" length="14.38" shape="850.45,310.05 847.37,307.54 845.89,304.68 846.01,301.46 847.72,297.88"/>
    </edge>
    <edge id=":250993992_3" function="internal">
        <lane id=":250993992_3_0" index="0" disallow="tram rail_urban rail rail_electric rail_fast ship" speed="6.40" length="9.04" shape="850.38,299.66 849.31,301.91 849.23,303.93 850.16,305.73 852.10,307.31"/>
    </edge>
    <edge id=":250993992_4" function="internal">
        <lane id=":250993992_4_0" index="0" disallow="tram rail_urban rail rail_electric rail_fast ship" speed="13.89" length="16.26" shape="850.38,299.66 848.02,302.82 845.25,305.95 842.26,308.88 839.26,311.45"/>
    </edge>
    <edge id=":250993992_5" function="internal">
        <lane id=":250993992_5_0" index="0" disallow="tram rail_urban rail rail_electric rail_fast ship" speed="8.43" length="4.34" shape="850.38,299.66 847.68,302.57 847.34,302.71"/>
    </edge>
    <edge id=":250993992_12" function="internal">
        <lane id=":250993992_12_0" index="0" disallow="tram rail_urban rail rail_electric rail_fast ship" speed="8.43" length="11.13" shape="847.34,302.71 844.53,303.88 840.92,303.60 836.86,301.73"/>
    </edge>
    <edge id=":250993992_6" function="internal">
        <lane id=":250993992_6_0" index="0" disallow="tram rail_urban rail rail_electric rail_fast ship" speed="7.03" length="10.43" shape="838.56,299.01 841.36,300.33 843.82,300.58 845.94,299.76 847.72,297.88"/>
    </edge>
    <edge id=":250993992_7" function="internal">
        <lane id=":250993992_7_0" index="0" disallow="tram rail_urban rail rail_electric rail_fast ship" speed="13.89" length="15.88" shape="838.56,299.01 852.10,307.31"/>
    </edge>
    <edge id=":250993992_8" function="internal">
        <lane id=":250993992_8_0" index="0" disallow="tram rail_urban rail rail_electric rail_fast ship" speed="7.53" length="15.71" shape="838.56,299.01 842.04,301.94 843.32,304.98 842.40,308.15 839.26,311.45"/>
    </edge>
    <edge id=":250993992_9" function="internal">
        <lane id=":250993992_9_0" index="0" disallow="tram rail_urban rail rail_electric rail_fast ship" speed="5.89" length="9.11" shape="837.27,308.94 839.09,307.03 839.63,305.19 838.89,303.43 836.86,301.73"/>
    </edge>
    <edge id=":250993992_10" function="internal">
        <lane id=":250993992_10_0" index="0" disallow="tram rail_urban rail rail_electric rail_fast ship" speed="13.89" length="15.27" shape="837.27,308.94 840.17,306.49 842.93,303.81 845.47,300.93 847.72,297.88"/>
    </edge>
    <edge id=":250993992_11" function="internal">
        <lane id=":250993992_11_0" index="0" disallow="tram rail_urban rail rail_electric rail_fast ship" speed="9.84" length="4.44" shape="837.27,308.94 841.04,306.59"/>
    </edge>
    <edge id=":250993992_13" function="internal">
        <lane id=":250993992_13_0" index="0" disallow="tram rail_urban rail rail_electric rail_fast ship" speed="9.84" length="11.52" shape="841.04,306.59 844.76,305.54 848.45,305.77 852.10,307.31"/>
    </edge>
    <edge id=":250993994_0" function="internal">
        <lane id=":250993994_0_0" index="0" allow="pedestrian delivery bicycle" speed="5.06" length="5.01" shape="722.30,359.12 721.74,357.86 720.92,357.08 719.83,356.78 718.47,356.95"/>
    </edge>
    <edge id=":250993994_1" function="internal">
        <lane id=":250993994_1_0" index="0" allow="pedestrian delivery bicycle" speed="6.86" length="10.15" shape="722.30,359.12 721.92,356.36 722.52,354.15 724.08,352.47 726.62,351.34"/>
    </edge>
    <edge id=":250993994_2" function="internal">
        <lane id=":250993994_2_0" index="0" allow="pedestrian delivery bicycle" speed="5.04" length="5.00" shape="727.50,354.41 726.25,354.97 725.48,355.80 725.19,356.89 725.37,358.24"/>
    </edge>
    <edge id=":250993994_3" function="internal">
        <lane id=":250993994_3_0" index="0" disallow="tram rail_urban rail rail_electric rail_fast ship" speed="13.89" length="9.38" shape="727.50,354.41 718.47,356.95"/>
    </edge>
    <edge id=":250993994_4" function="internal">
        <lane id=":250993994_4_0" index="0" disallow="tram rail_urban rail rail_electric rail_fast ship" speed="13.89" length="9.35" shape="717.62,353.87 726.62,351.34"/>
    </edge>
    <edge id=":250993994_5" function="internal">
        <lane id=":250993994_5_0" index="0" allow="pedestrian delivery bicycle" speed="6.87" length="3.22" shape="717.62,353.87 720.37,353.52 720.81,353.64"/>
    </edge>
    <edge id=":250993994_6" function="internal">
        <lane id=":250993994_6_0" index="0" allow="pedestrian delivery bicycle" speed="6.87" length="6.91" shape="720.81,353.64 722.58,354.13 724.25,355.71 725.37,358.24"/>
    </edge>
    <edge id=":250994000_0" function="internal">
        <lane id=":250994000_0_0" index="0" disallow="tram rail_urban rail rail_electric rail_fast ship" speed="6.39" length="9.04" shape="414.65,448.34 413.77,446.01 412.36,444.56 410.41,444.00 407.94,444.33"/>
    </edge>
    <edge id=":250994000_1" function="internal">
        <lane id=":250994000_1_0" index="0" disallow="tram rail_urban rail rail_electric rail_fast ship" speed="13.89" length="14.73" shape="414.65,448.34 411.49,433.96"/>
    </edge>
    <edge id=":250994000_2" function="internal">
        <lane id=":250994000_2_0" index="0" disallow="tram rail_urban rail rail_electric rail_fast ship" speed="8.20" length="4.16" shape="414.65,448.34 414.34,444.39 414.40,444.20"/>
    </edge>
    <edge id=":250994000_12" function="internal">
        <lane id=":250994000_12_0" index="0" disallow="tram rail_urban rail rail_electric rail_fast ship" speed="8.20" length="10.35" shape="414.40,444.20 415.35,441.24 417.67,438.91 421.30,437.38"/>
    </edge>
    <edge id=":250994000_3" function="internal">
        <lane id=":250994000_3_0" index="0" disallow="tram rail_urban rail rail_electric rail_fast ship" speed="6.74" length="9.48" shape="422.11,440.47 419.74,441.47 418.23,443.00 417.57,445.06 417.77,447.65"/>
    </edge>
    <edge id=":250994000_4" function="internal">
        <lane id=":250994000_4_0" index="0" disallow="tram rail_urban rail rail_electric rail_fast ship" speed="13.89" length="14.69" shape="422.11,440.47 407.94,444.33"/>
    </edge>
    <edge id=":250994000_5" function="internal">
        <lane id=":250994000_5_0" index="0" disallow="tram rail_urban rail rail_electric rail_fast ship" speed="7.93" length="14.35" shape="422.11,440.47 418.18,440.92 415.10,439.99 412.87,437.66 411.49,433.96"/>
    </edge>
    <edge id=":250994000_6" function="internal">
        <lane id=":250994000_6_0" index="0" disallow="tram rail_urban rail rail_electric rail_fast ship" speed="6.42" length="9.04" shape="414.61,433.28 415.48,435.61 416.89,437.07 418.83,437.66 421.30,437.38"/>
    </edge>
    <edge id=":250994000_7" function="internal">
        <lane id=":250994000_7_0" index="0" disallow="tram rail_urban rail rail_electric rail_fast ship" speed="13.89" length="14.71" shape="414.61,433.28 417.77,447.65"/>
    </edge>
    <edge id=":250994000_8" function="internal">
        <lane id=":250994000_8_0" index="0" disallow="tram rail_urban rail rail_electric rail_fast ship" speed="8.27" length="4.11" shape="414.61,433.28 414.90,437.21 414.85,437.37"/>
    </edge>
    <edge id=":250994000_13" function="internal">
        <lane id=":250994000_13_0" index="0" disallow="tram rail_urban rail rail_electric rail_fast ship" speed="8.27" length="10.43" shape="414.85,437.37 413.89,440.36 411.56,442.73 407.94,444.33"/>
    </edge>
    <edge id=":250994000_9" function="internal">
        <lane id=":250994000_9_0" index="0" disallow="tram rail_urban rail rail_electric rail_fast ship" speed="6.83" length="9.59" shape="407.07,441.25 409.47,440.19 411.00,438.63 411.68,436.55 411.49,433.96"/>
    </edge>
    <edge id=":250994000_10" function="internal">
        <lane id=":250994000_10_0" index="0" disallow="tram rail_urban rail rail_electric rail_fast ship" speed="13.89" length="14.75" shape="407.07,441.25 421.30,437.38"/>
    </edge>
    <edge id=":250994000_11" function="internal">
        <lane id=":250994000_11_0" index="0" disallow="tram rail_urban rail rail_electric rail_fast ship" speed="7.90" length="14.41" shape="407.07,441.25 411.02,440.72 414.11,441.62 416.37,443.92 417.77,447.65"/>
    </edge>
    <edge id=":250994004_0" function="internal">
        <lane id=":250994004_0_0" index="0" disallow="tram rail_urban rail rail_electric rail_fast ship" speed="13.89" length="9.53" shape="544.93,254.48 542.93,245.16"/>
    </edge>
    <edge id=":250994004_1" function="internal">
        <lane id=":250994004_1_0" index="0" allow="pedestrian delivery bicycle" speed="6.87" length="3.34" shape="544.93,254.48 544.70,251.70 544.87,251.18"/>
    </edge>
    <edge id=":250994004_6" function="internal">
        <lane id=":250994004_6_0" index="0" allow="pedestrian delivery bicycle" speed="6.87" length="6.89" shape="544.87,251.18 545.43,249.51 547.11,247.92 549.74,246.92"/>
    </edge>
    <edge id=":250994004_2" function="internal">
        <lane id=":250994004_2_0" index="0" allow="pedestrian delivery bicycle" speed="5.05" length="5.05" shape="550.44,250.05 549.13,250.54 548.30,251.32 547.94,252.40 548.05,253.77"/>
    </edge>
    <edge id=":250994004_3" function="internal">
        <lane id=":250994004_3_0" index="0" allow="pedestrian delivery bicycle" speed="6.84" length="10.27" shape="550.44,250.05 547.63,250.27 545.44,249.52 543.87,247.82 542.93,245.16"/>
    </edge>
    <edge id=":250994004_4" function="internal">
        <lane id=":250994004_4_0" index="0" allow="pedestrian delivery bicycle" speed="5.02" length="5.03" shape="546.07,244.53 546.53,245.84 547.29,246.67 548.37,247.03 549.74,246.92"/>
    </edge>
    <edge id=":250994004_5" function="internal">
        <lane id=":250994004_5_0" index="0" disallow="tram rail_urban rail rail_electric rail_fast ship" speed="13.89" length="9.44" shape="546.07,244.53 548.05,253.77"/>
    </edge>
    <edge id=":2833403712_0" function="internal">
        <lane id=":2833403712_0_0" index="0" disallow="tram rail_urban rail rail_electric rail_fast ship" speed="13.89" length="9.05" shape="901.05,339.99 893.25,335.39"/>
    </edge>
    <edge id=":2833403712_1" function="internal">
        <lane id=":2833403712_1_0" index="0" allow="pedestrian delivery bicycle" speed="6.93" length="3.01" shape="901.05,339.99 899.00,338.22 898.86,337.95"/>
    </edge>
    <edge id=":2833403712_6" function="internal">
        <lane id=":2833403712_6_0" index="0" allow="pedestrian delivery bicycle" speed="6.93" length="6.98" shape="898.86,337.95 897.98,336.20 897.97,333.92 898.99,331.38"/>
    </edge>
    <edge id=":2833403712_2" function="internal">
        <lane id=":2833403712_2_0" index="0" allow="pedestrian delivery bicycle" speed="5.13" length="5.01" shape="901.77,332.97 901.25,334.25 901.25,335.40 901.75,336.41 902.77,337.29"/>
    </edge>
    <edge id=":2833403712_3" function="internal">
        <lane id=":2833403712_3_0" index="0" allow="pedestrian delivery bicycle" speed="6.88" length="10.05" shape="901.77,332.97 900.08,335.14 898.10,336.26 895.82,336.35 893.25,335.39"/>
    </edge>
    <edge id=":2833403712_4" function="internal">
        <lane id=":2833403712_4_0" index="0" allow="pedestrian delivery bicycle" speed="5.07" length="4.97" shape="894.78,332.58 896.05,333.05 897.18,333.01 898.16,332.45 898.99,331.38"/>
    </edge>
    <edge id=":2833403712_5" function="internal">
        <lane id=":2833403712_5_0" index="0" disallow="tram rail_urban rail rail_electric rail_fast ship" speed="13.89" length="9.28" shape="894.78,332.58 902.77,337.29"/>
    </edge>
    <edge id=":2863103317_0" function="internal">
        <lane id=":2863103317_0_0" index="0" allow="pedestrian delivery bicycle" speed="5.56" length="7.71" shape="425.46,236.88 425.37,234.77 425.97,233.14 427.26,231.97 429.26,231.28"/>
    </edge>
    <edge id=":2863103317_1" function="internal">