<?xml version="1.0" encoding="UTF-8"?>

<!-- generated on 2023-11-08 14:34:11 by Eclipse SUMO polyconvert Version v1_18_0+2302-d2b4eb5e0e7
<configuration xmlns:xsi="http://www.w3.org/2001/XMLSchema-instance" xsi:noNamespaceSchemaLocation="http://sumo.dlr.de/xsd/polyconvertConfiguration.xsd">

    <input>
        <net-file value="katrinebjerg/katrinebjerg.net.xml"/>
        <osm-files value="katrinebjerg/katrinebjerg.osm"/>
        <type-file value="typemap.xml"/>
    </input>

    <output>
        <output-file value="katrinebjerg/katrinebjerg.poly.xml"/>
    </output>

</configuration>
-->

<additional xmlns:xsi="http://www.w3.org/2001/XMLSchema-instance" xsi:noNamespaceSchemaLocation="http://sumo.dlr.de/xsd/additional_file.xsd">
    <location netOffset="-573333.86,-6225395.52" convBoundary="-100.85,0.00,1319.82,1604.08" origBoundary="10.179625,56.167818,10.202450,56.182167" projParameter="+proj=utm +zone=32 +ellps=WGS84 +datum=WGS84 +units=m +no_defs"/>

    <poly id="1037090705" type="amenity" color="237,199,199" fill="1" layer="-1.00" shape="738.006254,376.838819 734.381150,362.370715 745.493904,359.379075 746.374811,362.667257 748.488608,362.180603 749.881603,367.459222 751.416450,367.051612 753.041757,372.902007 738.006254,376.838819"/>
    <poly id="1037090706" type="amenity" color="237,199,199" fill="1" layer="-1.00" shape="762.643201,367.880421 762.108400,365.767132 771.109915,363.473767 771.650921,365.587165 762.643201,367.880421"/>
    <poly id="1037090707" type="amenity" color="237,199,199" fill="1" layer="-1.00" shape="763.151184,363.647746 762.498371,361.176176 771.563332,358.805983 772.216140,361.277554 763.151184,363.647746"/>
    <poly id="1037090708" type="amenity" color="237,199,199" fill="1" layer="-1.00" shape="765.522696,359.035418 765.080108,357.335626 773.121650,355.248301 773.564234,356.948095 765.522696,359.035418"/>
    <poly id="1054064840" type="building" color="255,230,230" fill="1" layer="-1.00" shape="844.274521,292.602273 850.778516,282.840455 795.984121,246.468037 789.480393,256.218808 844.274521,292.602273"/>
    <poly id="1064072656" type="commercial" color="209,209,204" fill="0" layer="-3.00" shape="549.532438,510.177667 563.052604,507.282770 563.094781,507.717664 591.261920,501.413094 588.451983,488.629061 587.086854,484.965183 545.561527,494.846568 514.977463,501.577313 517.863903,514.618658 524.717709,544.638623 524.015772,544.648779 524.058528,545.050285 527.295459,559.010545 530.543632,573.037797 520.967874,575.533265 524.833371,590.495154 525.061867,591.289499 517.133798,593.312439 506.880807,595.829653 493.220031,599.334580 490.057337,591.509602 489.565893,589.397097 488.290567,584.844204 488.094710,584.317602 467.223227,590.381211 457.905665,592.313514 438.441405,596.364279 449.006244,644.939042 446.323515,648.900490 406.902708,662.181437 338.888813,679.557195 331.503270,645.732240 327.028031,619.972722 332.860927,619.160218 328.013150,598.448415 323.162232,576.111231 306.892193,502.769232"/>
    <poly id="1064072658" type="landuse" color="194,194,130" fill="1" layer="-3.00" shape="365.874413,492.506915 412.599402,482.145597 406.410115,454.597549 303.175868,483.056581 323.162232,576.111231 354.349259,569.656691 351.582963,555.381834 342.903732,556.668560 331.021484,559.314014 323.162613,523.744284 338.801677,520.406441 347.471930,518.562929 369.887354,507.237404 369.578298,504.627094 368.674619,504.811923 368.296930,503.302543 360.811510,507.025523 359.282260,499.896711 367.126338,498.428653 365.874413,492.506915"/>
    <poly id="107683562" type="building" color="255,230,230" fill="1" layer="-1.00" shape="341.984984,248.406918 338.361351,259.399072 314.121234,251.445442 313.577379,253.094819 301.534616,249.136086 301.115050,250.420232 284.143811,244.851658 287.223850,235.486582 287.989733,235.733530 288.645062,233.740961 300.311244,237.570725 300.789562,236.120603 313.678575,240.349934 314.045413,239.243000 330.949955,245.077724 334.117651,241.814756 333.217584,241.064532 361.638665,210.338243 365.178461,213.605303 367.077145,211.545085 371.968224,216.048843 341.984984,248.406918"/>
    <poly id="1101451304" type="landuse" color="194,194,130" fill="1" layer="-3.00" shape="311.532308,533.040188 301.756008,483.644446 265.497682,495.700877 258.675252,506.382063 274.809860,605.348380 290.029656,690.294462 338.515090,679.261321 321.388193,577.795106 311.532308,533.040188"/>
    <poly id="1117811576" type="amenity" color="237,199,199" fill="1" layer="-1.00" shape="571.986796,251.234914 574.913156,250.450489 573.525734,244.114448 570.682967,244.733330 571.986796,251.234914"/>
    <poly id="1117811576#1" type="building" color="255,230,230" fill="1" layer="-1.00" shape="571.986796,251.234914 574.913156,250.450489 573.525734,244.114448 570.682967,244.733330 571.986796,251.234914"/>
    <poly id="1176354628" type="building" color="255,230,230" fill="1" layer="-1.00" shape="517.712823,561.183061 527.295459,559.010545 530.543632,573.037797 520.967874,575.533265 517.712823,561.183061"/>
    <poly id="1185583857" type="shop" color="237,199,255" fill="1" layer="-1.00" shape="409.759049,353.539331 426.417342,349.840842 423.619215,337.057139 414.623025,339.050747 413.222408,332.747932 422.237429,330.743513 419.980151,320.451662 416.483023,318.320795 402.749363,321.323814 409.759049,353.539331"/>
    <poly id="1185583858" type="shop" color="237,199,255" fill="1" layer="-1.00" shape="412.515852,366.199856 429.186324,362.512722 426.417342,349.840842 409.759049,353.539331 412.515852,366.199856"/>
    <poly id="1185583859" type="shop" color="237,199,255" fill="1" layer="-1.00" shape="420.215941,400.509052 436.830411,396.820986 429.186324,362.512722 412.515852,366.199856 420.215941,400.509052"/>
    <poly id="1185594880" type="shop" color="237,199,255" fill="1" layer="-1.00" shape="401.360565,315.054605 388.430128,258.056570 401.553327,254.809207 403.092693,260.991949 403.382821,262.176983 407.831830,264.936513 417.389397,308.606660 415.143914,312.052437 401.360565,315.054605"/>
    <poly id="1185596864" type="amenity" color="237,199,199" fill="1" layer="-1.00" shape="424.424790,420.085577 437.808553,417.187930 436.739532,412.549551 436.190554,410.168884 422.947267,413.202545 424.424790,420.085577"/>
    <poly id="1185602008" type="shop" color="237,199,255" fill="1" layer="-1.00" shape="431.657082,348.873524 442.109841,395.709644 443.969008,397.021907 455.115898,394.553334 452.783013,383.970715 515.287228,369.830217 511.202725,351.346719 531.172415,347.227049 528.469334,335.791935 522.460147,308.992692 499.281138,314.092385 491.893628,315.712803 481.077302,318.086793 466.046607,321.390092 446.552256,325.674111 447.600365,330.445720 435.630694,333.078261 435.377066,331.938383 432.888660,332.541195 428.261264,333.652650 430.567417,343.989878 443.298162,341.158921 444.976040,348.668827 436.478668,350.548527 435.890437,347.922271 431.657082,348.873524"/>
    <poly id="1185602009" type="shop" color="237,199,255" fill="1" layer="-1.00" shape="430.878092,315.139962 429.506207,317.264889 432.888660,332.541195 428.261264,333.652650 425.101767,319.493432 427.380790,315.903517 430.878092,315.139962"/>
    <poly id="1185602010" type="shop" color="237,199,255" fill="1" layer="-1.00" shape="463.127206,308.081046 466.046607,321.390092 446.552256,325.674111 442.818069,326.489233 439.898792,313.169074 463.127206,308.081046"/>
    <poly id="1185602011" type="shop" color="237,199,255" fill="1" layer="-1.00" shape="423.619215,337.057139 422.237429,330.743513 413.222408,332.747932 414.623025,339.050747 423.619215,337.057139"/>
    <poly id="1185602012" type="amenity" color="237,199,199" fill="1" layer="-1.00" shape="430.567417,343.989878 431.657082,348.873524 435.890437,347.922271 436.478668,350.548527 444.976040,348.668827 443.298162,341.158921 430.567417,343.989878"/>
    <poly id="1185602012#1" type="building" color="255,230,230" fill="1" layer="-1.00" shape="430.567417,343.989878 431.657082,348.873524 435.890437,347.922271 436.478668,350.548527 444.976040,348.668827 443.298162,341.158921 430.567417,343.989878"/>
    <poly id="1185772270" type="shop" color="237,199,255" fill="1" layer="-1.00" shape="416.659147,255.447852 416.191792,256.619841 416.259206,257.032902 416.406260,257.870367 417.056806,258.683107 417.999092,259.144633 419.042560,259.140341 424.734621,257.880226 422.812838,249.742713 416.659147,255.447852"/>
    <poly id="1185772275" type="amenity" color="237,199,199" fill="1" layer="-1.00" shape="488.967710,302.425891 491.893628,315.712803 499.281138,314.092385 497.697115,306.906915 496.349032,300.805360 488.967710,302.425891"/>
    <poly id="1185772276" type="shop" color="237,199,255" fill="1" layer="-1.00" shape="478.151544,304.788759 481.077302,318.086793 491.893628,315.712803 488.967710,302.425891 478.151544,304.788759"/>
    <poly id="1185772277" type="shop" color="237,199,255" fill="1" layer="-1.00" shape="463.127206,308.081046 466.046607,321.390092 481.077302,318.086793 478.151544,304.788759 463.127206,308.081046"/>
    <poly id="1185820463" type="shop" color="237,199,255" fill="1" layer="-1.00" shape="415.980676,278.613890 428.991192,275.776572 427.645301,269.541490 426.086357,262.334218 420.056725,263.722105 414.439563,264.961251 413.322541,266.712070 415.980676,278.613890"/>
    <poly id="1185820464" type="shop" color="237,199,255" fill="1" layer="-1.00" shape="419.906968,296.215095 432.798891,293.409145 431.090424,285.509083 428.991192,275.776572 415.980676,278.613890 419.906968,296.215095"/>
    <poly id="1185820465" type="shop" color="237,199,255" fill="1" layer="-1.00" shape="422.478449,307.736926 426.003677,309.679029 435.847203,307.533055 432.798891,293.409145 419.906968,296.215095 422.478449,307.736926"/>
    <poly id="1186315746" type="shop" color="237,199,255" fill="1" layer="-1.00" shape="447.247673,270.536014 462.476564,266.913221 459.823175,255.824118 459.353438,253.890112 457.658782,252.758797 446.255428,255.312014 444.461653,258.131010 447.247673,270.536014"/>
    <poly id="1186315747" type="shop" color="237,199,255" fill="1" layer="-1.00" shape="449.612457,281.074646 458.063825,279.350031 459.767156,273.490326 463.814520,272.524761 462.476564,266.913221 447.247673,270.536014 449.612457,281.074646"/>
    <poly id="1186315748" type="shop" color="237,199,255" fill="1" layer="-1.00" shape="431.090424,285.509083 441.744605,283.176702 440.509299,277.733924 443.460342,272.630451 442.035099,266.316070 427.645301,269.541490 428.991192,275.776572 431.090424,285.509083"/>
    <poly id="1186315749" type="amenity" color="237,199,199" fill="1" layer="-1.00" shape="485.205149,240.397885 493.907110,245.757887 491.675745,235.410781 484.438268,236.967007 485.205149,240.397885"/>
    <poly id="1186315750" type="shop" color="237,199,255" fill="1" layer="-1.00" shape="465.918068,251.732229 466.582586,250.652703 479.385767,247.600446 482.840632,246.780539 485.065339,247.787412 486.112661,252.603547 467.067316,256.761632 465.918068,251.732229"/>
    <poly id="1186315751" type="shop" color="237,199,255" fill="1" layer="-1.00" shape="498.289214,266.083344 493.907110,245.757887 491.675745,235.410781 505.240380,232.505316 507.373130,241.726354 518.030784,289.256410 499.103150,293.438644 496.921479,292.098532 495.998494,287.997013 492.959011,274.452095 498.289214,266.083344"/>
    <poly id="1186315752" type="amenity" color="237,199,199" fill="1" layer="-1.00" shape="473.605552,292.887751 472.071773,284.946153 474.732525,284.435393 476.266298,292.376993 473.605552,292.887751"/>
    <poly id="1186315753" type="shop" color="237,199,255" fill="1" layer="-1.00" shape="466.383724,264.353303 468.616269,263.824027 467.067316,256.761632 465.918068,251.732229 464.163905,254.774549 466.383724,264.353303"/>
    <poly id="1186315754" type="amenity" color="237,199,199" fill="1" layer="-1.00" shape="482.517326,275.262869 490.671848,273.466405 489.221002,266.839857 481.054051,268.636110 482.517326,275.262869"/>
    <poly id="1186315756" type="shop" color="237,199,255" fill="1" layer="-1.00" shape="449.229639,298.245396 459.342485,295.970526 459.899794,292.462281 459.376462,289.313916 469.190736,287.067320 467.941876,280.611248 465.320827,278.818282 463.814520,272.524761 459.767156,273.490326 458.063825,279.350031 449.612457,281.074646 446.895060,281.628975 445.785124,282.968008 449.229639,298.245396"/>
    <poly id="1186315757" type="shop" color="237,199,255" fill="1" layer="-1.00" shape="460.733315,302.117334 459.342485,295.970526 459.899794,292.462281 459.376462,289.313916 469.190736,287.067320 470.433766,293.501028 471.157831,297.254006 469.049397,300.312483 460.733315,302.117334"/>
    <poly id="1186315758" type="shop" color="237,199,255" fill="1" layer="-1.00" shape="450.066055,301.966909 449.229639,298.245396 459.342485,295.970526 460.733315,302.117334 452.909461,303.830492 450.066055,301.966909"/>
    <poly id="1186315759" type="shop" color="237,199,255" fill="1" layer="-1.00" shape="435.847203,307.533055 432.798891,293.409145 431.090424,285.509083 441.744605,283.176702 446.206712,302.835534 444.200707,305.717668 435.847203,307.533055"/>
    <poly id="1186315761" type="amenity" color="237,199,199" fill="1" layer="-1.00" shape="484.707953,296.619249 492.370022,294.925624 491.470717,290.891309 483.808641,292.584936 484.707953,296.619249"/>
    <poly id="1186475238" type="shop" color="237,199,255" fill="1" layer="-1.00" shape="399.955087,249.159809 413.526852,246.554755 417.508615,245.432162 421.270620,243.726901 424.360270,241.754016 427.164624,239.397716 414.052716,227.560752 393.163366,250.801791 399.955087,249.159809"/>
    <poly id="1186475239" type="shop" color="237,199,255" fill="1" layer="-1.00" shape="442.602607,253.924317 440.395662,254.409519 438.747243,246.989183 446.080502,245.278677 446.801193,248.508368 446.723764,249.397628 446.355669,250.215086 445.327710,251.121367 443.981612,251.387617 442.602607,253.924317"/>
    <poly id="1186475240" type="amenity" color="237,199,199" fill="1" layer="-1.00" shape="428.131638,244.913795 429.875418,248.962641 438.747243,246.989183 446.080502,245.278677 443.953952,235.690410 443.716070,234.717790 443.064759,233.949563 442.208052,233.567432 441.269936,233.584667 440.223201,233.778149 439.366331,234.486995 428.131638,244.913795"/>
    <poly id="1186475241" type="shop" color="237,199,255" fill="1" layer="-1.00" shape="422.812838,249.742713 424.734621,257.880226 440.395662,254.409519 438.747243,246.989183 429.875418,248.962641 428.131638,244.913795 422.812838,249.742713"/>
    <poly id="1186475242" type="shop" color="237,199,255" fill="1" layer="-1.00" shape="484.438268,236.967007 491.675745,235.410781 505.240380,232.505316 503.385114,224.480236 482.708172,229.244670 484.438268,236.967007"/>
    <poly id="1189450947" type="shop" color="237,199,255" fill="1" layer="-1.00" shape="461.833407,236.120956 478.859869,232.351077 473.264512,207.818937 472.561158,206.827160 471.522209,206.208101 470.437950,206.055824 469.377830,206.304731 457.643091,217.268328 461.833407,236.120956"/>
    <poly id="1189450948" type="shop" color="237,199,255" fill="1" layer="-1.00" shape="463.809995,245.038702 463.031831,241.540839 461.833407,236.120956 478.859869,232.351077 480.095526,237.771608 480.984739,241.672156 480.821792,242.838253 479.915699,243.880215 478.574846,244.202207 466.158331,247.160940 465.235320,247.022575 464.455234,246.519304 463.988660,245.843317 463.809995,245.038702"/>
    <poly id="1189450955" type="shop" color="237,199,255" fill="1" layer="-1.00" shape="414.052716,227.560752 427.164624,239.397716 430.328299,236.012292 432.341227,232.729503 434.189276,229.644258 436.246777,227.019052 424.553967,216.085966 414.052716,227.560752"/>
    <poly id="1189450956" type="shop" color="237,199,255" fill="1" layer="-1.00" shape="450.288744,244.349268 463.031831,241.540839 461.833407,236.120956 457.643091,217.268328 447.429489,226.822081 446.754545,228.146344 447.026566,230.021280 450.288744,244.349268"/>
    <poly id="1202704764" type="building" color="255,230,230" fill="1" layer="-1.00" shape="744.602451,734.672202 742.269666,726.649866 738.838422,727.559024 741.190414,735.548294 744.602451,734.672202"/>
    <poly id="1202704765" type="building" color="255,230,230" fill="1" layer="-1.00" shape="735.036882,703.925837 731.692151,704.858763 732.697775,708.471944 736.048711,707.539126 735.036882,703.925837"/>
    <poly id="1202704783" type="building" color="255,230,230" fill="1" layer="-1.00" shape="493.558491,688.110518 496.321400,687.423420 495.740687,685.086725 492.971953,685.751458 493.558491,688.110518"/>
    <poly id="1202704810" type="building" color="255,230,230" fill="1" layer="-1.00" shape="503.047542,718.354020 500.678703,708.794927 497.660120,709.544407 498.420615,712.618944 497.921465,712.755058 498.240844,714.040797 497.261745,714.279959 497.887704,716.873481 498.879410,716.623404 499.517592,719.228269 503.047542,718.354020"/>
    <poly id="1202704815" type="building" color="255,230,230" fill="1" layer="-1.00" shape="486.061207,665.159735 484.977536,661.378286 476.752265,663.719013 477.829542,667.511483 486.061207,665.159735"/>
    <poly id="1202704820" type="building" color="255,230,230" fill="1" layer="-1.00" shape="467.232261,693.256258 467.698224,695.045481 469.719660,694.501439 469.241282,692.712002 467.232261,693.256258"/>
    <poly id="1202704821" type="building" color="255,230,230" fill="1" layer="-1.00" shape="445.742541,704.597212 448.019848,703.979642 447.260729,701.183450 444.989820,701.789998 445.742541,704.597212"/>
    <poly id="1202704822" type="building" color="255,230,230" fill="1" layer="-1.00" shape="463.092097,678.011376 463.930836,681.231976 466.931191,680.459893 463.537764,667.287384 457.961117,668.727543 459.771613,675.738788 462.641023,674.997842 463.391435,677.938609 463.092097,678.011376"/>
    <poly id="1202704824" type="building" color="255,230,230" fill="1" layer="-1.00" shape="633.428437,665.075876 632.540732,661.820996 624.722370,663.968087 625.610274,667.211836 633.428437,665.075876"/>
    <poly id="1202704863" type="building" color="255,230,230" fill="1" layer="-1.00" shape="584.389165,711.363741 585.618716,715.682095 593.169819,713.541454 591.952883,709.212182 584.389165,711.363741"/>
    <poly id="1202704865" type="building" color="255,230,230" fill="1" layer="-1.00" shape="671.478262,669.718817 675.096938,668.746049 672.111835,657.495200 668.480927,658.456627 671.478262,669.718817"/>
    <poly id="1202704877" type="building" color="255,230,230" fill="1" layer="-1.00" shape="609.338134,662.633650 605.520613,663.614172 606.680464,667.653017 610.369723,666.547825 609.338134,662.633650"/>
    <poly id="1202704878" type="building" color="255,230,230" fill="1" layer="-1.00" shape="597.921581,667.446099 596.091033,668.082437 596.748056,669.952901 598.572395,669.316456 597.921581,667.446099"/>
    <poly id="1202704882" type="building" color="255,230,230" fill="1" layer="-1.00" shape="734.221682,620.741132 730.089681,622.306124 730.962453,624.625640 735.100660,623.060757 734.221682,620.741132"/>
    <poly id="1202704885" type="building" color="255,230,230" fill="1" layer="-1.00" shape="698.426932,655.178159 700.827891,662.856541 703.206902,662.107274 700.799546,654.439913 698.426932,655.178159"/>
    <poly id="1202704886" type="building" color="255,230,230" fill="1" layer="-1.00" shape="672.841306,720.918277 666.562358,722.390554 667.337700,725.676897 673.610627,724.193385 672.841306,720.918277"/>
    <poly id="1202704924" type="building" color="255,230,230" fill="1" layer="-1.00" shape="519.041409,676.415645 520.889246,684.496278 522.641245,684.092335 520.787202,676.011594 519.041409,676.415645"/>
    <poly id="1202704931" type="building" color="255,230,230" fill="1" layer="-1.00" shape="592.459431,702.174088 594.182911,708.816523 600.002060,707.358464 598.266941,700.671296 592.459431,702.174088"/>
    <poly id="1202704932" type="building" color="255,230,230" fill="1" layer="-1.00" shape="544.102366,733.089132 541.999808,724.658985 536.848242,725.939389 538.951002,734.358403 544.102366,733.089132"/>
    <poly id="1202704944" type="building" color="255,230,230" fill="1" layer="-1.00" shape="368.168529,726.138276 371.108476,725.264895 369.740907,720.654788 366.807165,721.528277 368.168529,726.138276"/>
    <poly id="1202704949" type="building" color="255,230,230" fill="1" layer="-1.00" shape="699.238138,713.492864 700.729764,718.450336 706.472660,716.735056 704.981040,711.777582 699.238138,713.492864"/>
    <poly id="1202704954" type="building" color="255,230,230" fill="1" layer="-1.00" shape="413.707832,707.674468 409.872925,708.588068 410.631182,711.796139 414.472486,710.871517 413.707832,707.674468"/>
    <poly id="1202704974" type="building" color="255,230,230" fill="1" layer="-1.00" shape="730.501825,669.203169 733.451634,680.330995 743.988948,677.529800 742.257359,671.009616 739.181481,671.835864 737.957075,667.228108 730.501825,669.203169"/>
    <poly id="1202704983" type="building" color="255,230,230" fill="1" layer="-1.00" shape="596.721409,636.610753 598.700009,636.032634 601.157533,644.402144 604.590156,643.414971 600.758189,629.767208 595.082110,631.205474 596.721409,636.610753"/>
    <poly id="1202704999" type="building" color="255,230,230" fill="1" layer="-1.00" shape="451.307467,715.725363 454.311510,715.098056 454.001395,713.634362 450.997351,714.261669 451.307467,715.725363"/>
    <poly id="1202705000" type="building" color="255,230,230" fill="1" layer="-1.00" shape="469.608383,704.919488 468.922503,702.558719 467.019027,703.104794 467.710924,705.476799 469.608383,704.919488"/>
    <poly id="1202705001" type="building" color="255,230,230" fill="1" layer="-1.00" shape="473.872394,714.778411 473.041098,711.847380 473.459348,711.721001 472.142701,707.044942 468.567181,708.040888 469.930812,712.873610 470.430152,712.726363 471.220295,715.523095 473.872394,714.778411"/>
    <poly id="1202705010" type="building" color="255,230,230" fill="1" layer="-1.00" shape="611.977214,718.018647 611.240289,715.022422 607.641637,715.917661 608.378757,718.902756 611.977214,718.018647"/>
    <poly id="1202705013" type="building" color="255,230,230" fill="1" layer="-1.00" shape="653.352494,641.240443 654.063046,639.293410 652.793014,637.679522 650.812237,638.023797 650.101687,639.970831 651.371719,641.584718 653.352494,641.240443"/>
    <poly id="1202705025" type="building" color="255,230,230" fill="1" layer="-1.00" shape="687.150535,681.689953 688.448770,686.699739 691.231108,685.968572 689.932683,680.969914 687.150535,681.689953"/>
    <poly id="1202705034" type="building" color="255,230,230" fill="1" layer="-1.00" shape="409.596999,714.873144 406.930766,704.540848 401.547601,705.928749 402.799560,710.759524 404.408940,710.341944 405.829239,715.854698 409.596999,714.873144"/>
    <poly id="1202705041" type="building" color="255,230,230" fill="1" layer="-1.00" shape="700.167750,646.803255 700.400712,643.745858 696.251601,643.429201 696.030866,646.497942 700.167750,646.803255"/>
    <poly id="1202705057" type="building" color="255,230,230" fill="1" layer="-1.00" shape="330.901136,724.762157 330.021722,721.373899 327.008815,722.156994 327.888231,725.545251 330.901136,724.762157"/>
    <poly id="1202705058" type="building" color="255,230,230" fill="1" layer="-1.00" shape="374.308186,702.810193 376.112746,710.533774 380.589769,709.475345 378.791424,701.751869 374.308186,702.810193"/>
    <poly id="1202705059" type="building" color="255,230,230" fill="1" layer="-1.00" shape="505.327245,660.705007 506.851698,666.653759 511.397861,665.552128 511.658805,666.625343 517.788585,665.161397 514.928063,653.144679 508.698551,654.629174 509.862725,659.502998 505.327245,660.705007"/>
    <poly id="1202705060" type="building" color="255,230,230" fill="1" layer="-1.00" shape="658.050168,624.188778 654.419042,625.161346 656.281984,631.995469 659.907281,631.000537 658.050168,624.188778"/>
    <poly id="1202705061" type="building" color="255,230,230" fill="1" layer="-1.00" shape="712.931207,613.314895 714.692321,619.568396 718.098041,618.703305 716.607982,612.576947 712.931207,613.314895"/>
    <poly id="1202705093" type="building" color="255,230,230" fill="1" layer="-1.00" shape="665.892275,719.840773 670.611102,718.809090 669.257981,712.662850 664.538955,713.705664 665.892275,719.840773"/>
    <poly id="1202705105" type="building" color="255,230,230" fill="1" layer="-1.00" shape="625.037807,656.492528 626.519408,662.396056 631.359320,661.188301 629.877918,655.273642 625.037807,656.492528"/>
    <poly id="1202705106" type="building" color="255,230,230" fill="1" layer="-1.00" shape="752.677077,616.507263 756.049988,615.385587 754.450340,610.570949 751.077425,611.692626 752.677077,616.507263"/>
    <poly id="1202705110" type="building" color="255,230,230" fill="1" layer="-1.00" shape="609.720680,637.247137 605.049582,638.747276 606.717350,643.941534 611.388442,642.441397 609.720680,637.247137"/>
    <poly id="1202705118" type="building" color="255,230,230" fill="1" layer="-1.00" shape="612.437169,664.780074 616.598836,663.649649 615.962695,661.289714 611.801026,662.420140 612.437169,664.780074"/>
    <poly id="1202705121" type="building" color="255,230,230" fill="1" layer="-1.00" shape="581.963000,659.812010 583.629252,659.339816 584.777477,663.333924 587.379963,662.588452 583.361845,648.570121 579.092711,649.810048 581.963000,659.812010"/>
    <poly id="1202705122" type="building" color="255,230,230" fill="1" layer="-1.00" shape="381.837839,719.582822 376.717360,720.863952 377.310548,723.200844 382.418800,721.908372 381.837839,719.582822"/>
    <poly id="1202705126" type="building" color="255,230,230" fill="1" layer="-1.00" shape="745.811045,695.328733 746.780566,698.874498 749.457367,698.141543 748.488041,694.584648 745.811045,695.328733"/>
    <poly id="1202705143" type="building" color="255,230,230" fill="1" layer="-1.00" shape="768.352765,715.111570 770.101290,721.008642 766.949210,721.933742 768.720062,727.975922 783.178751,723.929067 781.512151,718.322852 776.381093,719.848239 775.829310,718.001831 773.201218,718.791275 771.809629,714.158349 768.352765,715.111570"/>
    <poly id="1202705150" type="building" color="255,230,230" fill="1" layer="-1.00" shape="771.400828,695.081365 767.059108,696.208524 768.451376,701.520541 772.780674,700.393168 771.400828,695.081365"/>
    <poly id="1202705160" type="building" color="255,230,230" fill="1" layer="-1.00" shape="491.749361,697.230191 492.487208,700.538117 497.100278,699.515553 496.362434,696.207626 491.749361,697.230191"/>
    <poly id="1202705183" type="building" color="255,230,230" fill="1" layer="-1.00" shape="568.460946,687.588171 569.449300,691.490456 576.809002,689.647057 575.820846,685.733641 568.460946,687.588171"/>
    <poly id="1202705201" type="building" color="255,230,230" fill="1" layer="-1.00" shape="601.112114,718.955383 601.528714,718.205570 601.228124,716.552776 599.732028,715.803331 598.228612,716.556641 597.879725,717.341021 598.342498,718.952085 599.896965,719.557816 601.112114,718.955383"/>
    <poly id="1202705217" type="building" color="255,230,230" fill="1" layer="-1.00" shape="711.458706,683.735619 709.067210,675.511904 705.490834,676.552169 707.237538,682.560505 708.242453,682.266175 708.881234,684.470316 711.458706,683.735619"/>
    <poly id="1202705235" type="building" color="255,230,230" fill="1" layer="-1.00" shape="671.281955,654.129987 670.602472,651.045685 673.488831,650.405363 672.982323,648.092190 669.198315,648.928513 669.480207,650.224750 668.158666,650.513617 669.068785,654.626091 671.281955,654.129987"/>
    <poly id="1202705240" type="building" color="255,230,230" fill="1" layer="-1.00" shape="484.097783,703.399223 482.721227,697.876062 472.430298,700.448361 473.807057,705.960389 484.097783,703.399223"/>
    <poly id="1202705241" type="building" color="255,230,230" fill="1" layer="-1.00" shape="523.286862,730.904276 519.120997,731.923393 521.690107,742.109369 522.201287,741.995731 522.661780,743.740336 526.379688,742.769157 523.286862,730.904276"/>
    <poly id="1202705244" type="building" color="255,230,230" fill="1" layer="-1.00" shape="773.638960,645.424795 781.780460,643.272435 780.940601,640.129674 772.811512,642.282251 773.638960,645.424795"/>
    <poly id="1202705252" type="building" color="255,230,230" fill="1" layer="-1.00" shape="803.509938,734.355958 801.242158,735.496731 801.169133,736.486256 804.357013,738.155665 805.177412,737.757970 805.260872,734.731385 803.509938,734.355958"/>
    <poly id="1202705263" type="building" color="255,230,230" fill="1" layer="-1.00" shape="751.549028,701.795786 752.510216,705.463866 755.348620,704.722578 754.387435,701.054498 751.549028,701.795786"/>
    <poly id="1202705264" type="building" color="255,230,230" fill="1" layer="-1.00" shape="696.029767,707.258873 694.108983,707.726622 695.441999,713.237972 698.771989,712.438353 698.267093,710.392383 696.870108,710.735598 696.029767,707.258873"/>
    <poly id="1202705269" type="building" color="255,230,230" fill="1" layer="-1.00" shape="711.860949,705.361810 712.820147,708.428693 717.209338,707.068518 716.262753,703.990720 711.860949,705.361810"/>
    <poly id="1208999104" type="building" color="255,230,230" fill="1" layer="-1.00" shape="634.116750,266.089655 684.940963,255.545999 680.157626,230.816077 670.497746,233.098261 672.488831,248.339595 632.242636,256.294127 634.116750,266.089655"/>
    <poly id="1215631740" type="amenity" color="237,199,199" fill="1" layer="-1.00" shape="453.341798,405.243297 444.669349,407.197888 443.751977,403.129875 444.946358,401.213411 452.054889,399.554711 453.341798,405.243297"/>
    <poly id="123916709" type="building" color="255,230,230" fill="1" layer="-1.00" shape="763.931793,332.534908 758.567243,313.071609 785.921819,305.006426 806.524250,295.221427 814.231166,310.673137 792.822852,320.733590 793.631407,322.818224 774.435997,329.543943 763.931793,332.534908"/>