<configuration>
    <input>
        <net-file value="katrinebjerg.net.xml"/>
        <route-files value="katrinebjerg.rou.xml"/>
        <additional-files value="katrinebjerg.poly.xml"/>
    </input>
    <time>
        <begin value="0"/>
        <step-length value="0.01"/>
        <end value="100000"/>
    </time>
    <gui_only>
        <delay value="1000"/>
        <start value="true"/>
    </gui_only>
</configuration>
