<?xml version="1.0" encoding="UTF-8"?>

<!-- generated on 2023-11-15 12:18:34 by Eclipse SUMO polyconvert Version 1.18.0
<configuration xmlns:xsi="http://www.w3.org/2001/XMLSchema-instance" xsi:noNamespaceSchemaLocation="http://sumo.dlr.de/xsd/polyconvertConfiguration.xsd">

    <input>
        <net-file value="katrinebjerg-lamp/katrinebjerg-lamp.net.xml"/>
        <osm-files value="katrinebjerg-lamp/katrinebjerg-lamp.osm"/>
        <type-file value="typemap.xml"/>
    </input>

    <output>
        <output-file value="katrinebjerg-lamp/katrinebjerg-lamp.poly.xml"/>
    </output>

</configuration>
-->

<additional xmlns:xsi="http://www.w3.org/2001/XMLSchema-instance" xsi:noNamespaceSchemaLocation="http://sumo.dlr.de/xsd/additional_file.xsd">
    <location netOffset="-572715.99,-6224429.69" convBoundary="-115.86,-0.00,2694.37,4530.23" origBoundary="10.169630,56.159077,10.214649,56.199932" projParameter="+proj=utm +zone=32 +ellps=WGS84 +datum=WGS84 +units=m +no_defs"/>

    <poly id="1009135698" type="building" color="255,230,230" fill="1" layer="-1.00" shape="2138.789785,1020.872750 2138.172193,1020.316462 2137.914747,1019.410229 2137.901777,1018.730920 2145.207531,999.810920 2145.929564,999.367110 2146.804492,999.059562 2147.568805,999.039526 2152.494725,1001.140625 2152.919444,1001.715808 2153.111505,1002.453911 2153.054616,1003.221059 2145.696840,1021.917487 2145.196785,1022.454238 2144.234545,1022.782524 2143.391462,1022.689859 2138.789785,1020.872750"/>
    <poly id="1009135712" type="building" color="255,230,230" fill="1" layer="-1.00" shape="2077.964999,1303.209989 2093.797995,1263.275981 2097.400211,1264.697081 2104.505880,1267.504167 2088.679006,1307.438244 2083.960235,1305.585743 2077.964999,1303.209989"/>
    <poly id="1009135713" type="building" color="255,230,230" fill="1" layer="-1.00" shape="2113.071100,1225.172210 2124.272465,1229.598319 2108.601487,1269.123150 2104.505880,1267.504167 2097.400211,1264.697081 2108.542641,1236.592951 2113.071100,1225.172210"/>
    <poly id="1009135714" type="building" color="255,230,230" fill="1" layer="-1.00" shape="2054.431842,1347.373523 2069.879689,1308.490296 2072.783868,1301.160172 2077.964999,1303.209989 2083.960235,1305.585743 2060.344692,1365.132923 2058.993937,1364.597239 2049.162251,1360.707303 2050.071105,1358.452142 2050.980155,1356.185853 2054.431842,1347.373523"/>
    <poly id="1009135715" type="building" color="255,230,230" fill="1" layer="-1.00" shape="2072.783868,1301.160172 2069.879689,1308.490296 2041.919893,1297.437317 2042.946148,1294.861363 2047.292563,1283.893810 2075.252630,1294.935694 2072.783868,1301.160172"/>
    <poly id="1009135716" type="building" color="255,230,230" fill="1" layer="-1.00" shape="2011.588392,1340.781043 2015.046023,1331.979919 2054.431842,1347.373523 2050.980155,1356.185853 2015.240043,1342.214070 2011.588392,1340.781043"/>
    <poly id="1009135717" type="building" color="255,230,230" fill="1" layer="-1.00" shape="2011.588392,1340.781043 2015.240043,1342.214070 2011.613225,1351.457541 1972.332266,1336.099561 1968.513932,1334.608001 1972.140669,1325.364495 2011.588392,1340.781043"/>
    <poly id="1009135718" type="man_made" color="255,230,230" fill="1" layer="-1.00" shape="1819.055250,1286.505310 1852.074657,1299.492917 1853.237770,1296.540798 1852.263183,1296.156454 1851.998788,1279.241604 1863.854044,1267.525179 1858.858649,1265.501125 1856.188855,1264.742150 1844.946682,1265.147534 1838.997091,1264.420521 1831.093613,1261.410738 1829.411002,1260.312727 1828.248479,1263.231464 1819.055250,1286.505310"/>
    <poly id="1009135722" type="building" color="255,230,230" fill="1" layer="-1.00" shape="1844.609431,1318.399471 1849.112336,1320.170020 1853.220400,1321.788975 1853.532178,1321.003998 1857.242102,1311.605994 1860.653064,1302.970928 1861.854985,1299.930427 1862.533489,1300.198292 1874.313046,1288.191133 1874.286496,1276.880064 1874.272262,1271.992654 1868.810437,1269.648753 1863.854044,1267.525179 1851.998788,1279.241604 1852.263183,1296.156454 1853.237770,1296.540798 1852.074657,1299.492917 1848.631309,1308.205353 1844.609431,1318.399471"/>
    <poly id="1009135767" type="building" color="255,230,230" fill="1" layer="-1.00" shape="1837.155335,1107.654226 1837.351646,1105.653797 1839.064255,1101.108163 1840.884832,1099.993215 1843.117177,1100.199069 1845.715096,1101.168299 1847.094712,1103.262962 1846.564473,1105.535889 1845.931395,1107.651170 1844.417227,1110.073952 1842.990332,1110.694791 1841.406063,1110.722870 1838.754206,1109.641379 1837.788294,1108.756229 1837.155335,1107.654226"/>
    <poly id="1009135780" type="building" color="255,230,230" fill="1" layer="-1.00" shape="1841.189969,1064.630634 1855.764623,1027.679657 1868.676031,1032.747142 1861.905119,1049.917965 1875.057056,1055.078720 1879.638026,1043.469408 1892.401310,1048.478724 1873.440470,1096.541328 1877.499458,1098.137181 1873.893128,1107.280927 1864.257628,1103.495045 1865.641595,1099.990152 1863.044649,1098.965264 1865.266797,1093.337532 1860.683520,1091.532175 1872.769879,1060.872303 1859.617957,1055.711555 1854.101280,1069.698076 1841.189969,1064.630634"/>
    <poly id="1009150181" type="landuse" color="194,194,130" fill="1" layer="-3.00" shape="1996.572882,1245.291655 2001.153421,1233.715856 2019.547360,1241.317502 2015.078537,1252.895231 1996.572882,1245.291655"/>
    <poly id="1009150182" type="parking" color="184,184,179" fill="1" layer="-1.00" shape="2052.594024,1271.584773 2056.707474,1273.961028 2061.404868,1265.304045 2065.161866,1255.728912 2060.201273,1253.849951 2056.777616,1263.542234 2052.594024,1271.584773"/>
    <poly id="1009150183" type="parking" color="184,184,179" fill="1" layer="-1.00" shape="2017.859209,1318.825876 2016.477467,1314.371027 2019.370962,1312.629196 2023.577242,1309.685706 2027.000070,1306.439099 2030.953585,1301.966052 2034.714259,1305.338053 2030.929351,1309.758377 2026.592659,1313.768304 2021.767637,1316.934773 2017.859209,1318.825876"/>
    <poly id="1009150185" type="amenity" color="237,199,199" fill="1" layer="-1.00" shape="1871.867949,1248.861995 1871.120632,1240.777926 1868.790114,1236.228675 1865.690676,1232.322850 1862.446122,1229.616809 1856.670277,1226.042882 1850.073155,1224.692292 1843.546310,1225.369048 1838.675335,1227.967165 1834.331773,1232.377933 1829.704447,1240.245967 1826.371163,1250.841726 1826.424810,1254.538645 1834.368699,1259.152200 1841.072114,1261.172567 1848.924113,1261.431748 1857.021730,1260.782357 1857.496808,1255.970264 1858.908468,1252.298864 1862.224693,1249.105934 1866.160295,1248.506532 1871.867949,1248.861995"/>
    <poly id="1009150190" type="building" color="255,230,230" fill="1" layer="-1.00" shape="1790.669268,1387.706526 1791.619105,1385.229378 1795.604309,1386.768214 1790.056803,1401.132777 1786.071612,1399.593946 1790.669268,1387.706526"/>
    <poly id="1009150191" type="building" color="255,230,230" fill="1" layer="-1.00" shape="1756.913424,1377.812532 1752.357556,1389.444665 1747.891746,1387.685995 1752.521913,1376.066281 1756.913424,1377.812532"/>
    <poly id="1009150192" type="building" color="255,230,230" fill="1" layer="-1.00" shape="1752.663019,1331.171442 1756.579797,1332.720182 1753.157424,1341.310597 1749.185161,1339.738630 1752.663019,1331.171442"/>
    <poly id="1009150197" type="landuse" color="194,194,130" fill="1" layer="-3.00" shape="2002.944145,1353.187649 1960.625454,1356.034059 1959.797941,1358.257259 1962.249384,1359.424394 1988.962913,1359.667727 1999.702110,1362.092736 2002.944145,1353.187649"/>
    <poly id="1009150198" type="landuse" color="194,194,130" fill="1" layer="-3.00" shape="2041.938473,1360.759296 2006.489883,1352.859886 2006.301474,1353.691536 2003.053412,1362.941623 2024.696102,1367.627622 2037.885706,1371.275546 2041.938473,1360.759296"/>
    <poly id="1009150199" type="landuse" color="194,194,130" fill="1" layer="-3.00" shape="2049.162251,1360.707303 2048.541541,1362.110292 2045.296172,1361.597195 2041.152395,1372.345636 2042.571639,1372.871377 2053.176903,1368.380902 2058.993937,1364.597239 2049.162251,1360.707303"/>
    <poly id="1020493630" type="landuse" color="194,194,130" fill="1" layer="-3.00" shape="1884.464130,2667.784904 1895.627414,2659.229341 1903.015825,2655.305912 1916.621730,2648.384938 1930.568847,2642.549811 1942.960002,2638.713704 1953.229405,2635.853675 1952.298836,2643.285093 1943.226398,2683.237281 1930.315529,2689.112703 1884.464130,2667.784904"/>
    <poly id="1026301081" type="water" color="181,209,209" fill="0" layer="-4.00" shape="724.921425,2673.090764 614.423564,2684.198809 599.146006,2685.551281"/>
    <poly id="1026301082" type="water" color="181,209,209" fill="0" layer="-4.00" shape="783.126964,2675.247697 724.921425,2673.090764"/>
    <poly id="1036265443" type="amenity" color="237,199,199" fill="1" layer="-1.00" shape="1928.396575,1716.309667 1929.626962,1712.701924 1936.263654,1714.943947 1935.039276,1718.562926 1928.396575,1716.309667"/>
    <poly id="1036265896" type="amenity" color="237,199,199" fill="1" layer="-1.00" shape="1987.537668,1691.936817 1992.431498,1678.396027 1996.807181,1685.296606 1997.698602,1687.238085 1987.537668,1691.936817"/>
    <poly id="1036268243" type="landuse" color="194,194,130" fill="1" layer="-3.00" shape="2090.084180,1452.741956 2103.561501,1458.387836 2105.406550,1454.802013 2104.299785,1452.389185 2091.580516,1450.630658 2090.917940,1450.875129 2090.250892,1451.375571 2090.075484,1451.817806 2090.084180,1452.741956"/>
    <poly id="1036268244" type="landuse" color="194,194,130" fill="1" layer="-3.00" shape="2107.361602,1442.078326 2114.985596,1444.349003 2113.766608,1448.357666 2108.381942,1446.593689 2108.141769,1446.121927 2107.361602,1442.078326"/>
    <poly id="1036268245" type="landuse" color="194,194,130" fill="1" layer="-3.00" shape="2088.716667,1444.635867 2090.162840,1445.395878 2090.518476,1445.301898 2096.063462,1440.734259 2095.735103,1437.845203 2091.962682,1436.576982 2088.716667,1444.635867"/>
    <poly id="1036268246" type="amenity" color="237,199,199" fill="0" layer="-1.00" shape="2091.901646,1444.691511 2095.781730,1441.219167"/>
    <poly id="1036268247" type="amenity" color="237,199,199" fill="0" layer="-1.00" shape="2107.550492,1444.063213 2108.051917,1446.643584 2110.395406,1447.586271"/>
    <poly id="1036268248" type="amenity" color="237,199,199" fill="0" layer="-1.00" shape="2092.129589,1450.484396 2102.551329,1451.868802"/>
    <poly id="1036268249" type="tourism" color="207,245,201" fill="1" layer="-2.00" shape="2096.987283,1447.930866 2094.094537,1446.789338 2095.269033,1443.904275 2097.561830,1446.326692 2096.987283,1447.930866"/>
    <poly id="1036268250" type="amenity" color="237,199,199" fill="1" layer="-1.00" shape="2117.567203,1461.515916 2122.892240,1447.147862 2115.413401,1444.389877 2110.094595,1458.758049 2117.567203,1461.515916"/>
    <poly id="1036478925" type="landuse" color="194,194,130" fill="1" layer="-3.00" shape="727.027208,2059.651992 739.889688,2055.876141 741.596787,2055.905434 742.953588,2056.808178 743.465102,2058.843057 742.703290,2061.624224 739.376401,2066.610126 737.354447,2069.369671 734.251028,2070.741372 729.581949,2070.716925 725.945894,2068.027291 724.418796,2064.383053 724.573874,2061.858653 725.859415,2060.400095 727.027208,2059.651992"/>
    <poly id="1036478926" type="landuse" color="194,194,130" fill="1" layer="-3.00" shape="737.254109,2078.474274 747.159447,2087.082629 745.262286,2072.800564 741.464194,2076.297765 737.254109,2078.474274"/>
    <poly id="1036478927" type="landuse" color="194,194,130" fill="1" layer="-3.00" shape="748.702558,2086.897594 762.360847,2055.927813 758.995738,2053.732628 757.846657,2053.390066 756.562535,2054.403342 754.596242,2057.174967 746.158185,2071.613636 748.702558,2086.897594"/>
    <poly id="1036809664" type="natural" color="140,196,107" fill="1" layer="-4.00" shape="1929.662215,2662.494597 1935.006514,2671.115315 1940.007202,2672.382587 1943.958821,2656.910525 1944.336120,2654.145110 1944.275062,2651.594699 1943.223225,2650.318377 1941.018474,2649.289124 1938.848816,2649.095424 1936.971449,2649.585906 1935.313820,2651.716701 1935.467019,2653.968142 1936.006980,2656.115002 1938.122545,2654.426363 1940.280574,2653.862849 1941.564989,2653.907519 1942.237247,2654.876641 1942.593724,2656.508207 1942.245136,2659.051472 1941.477022,2660.730216 1939.430136,2661.329065 1938.632758,2661.482145 1937.827809,2662.069260 1937.235826,2662.905006 1936.789322,2663.231193 1935.470770,2663.364050 1933.980559,2663.727696 1932.611775,2663.536834 1929.662215,2662.494597"/>
    <poly id="1036809665" type="natural" color="140,196,107" fill="1" layer="-4.00" shape="1945.941267,2647.193023 1948.156355,2644.782511 1946.270883,2642.534249 1945.256269,2642.327297 1943.181801,2644.862722 1945.941267,2647.193023"/>
    <poly id="1037050749" type="landuse" color="194,194,130" fill="1" layer="-3.00" shape="664.747947,2112.810003 678.757564,2109.476669 689.229148,2097.377155 686.126473,2095.086336 685.472084,2094.139991 684.275638,2093.663047 683.229902,2093.812103 682.344711,2094.375812 681.528680,2095.976022 681.388690,2096.897613 681.676362,2098.227303 680.791679,2100.572209 679.347070,2102.618071 677.023659,2104.493013 674.253866,2105.603299 671.275674,2105.830552 668.368423,2105.179562 665.773442,2103.698995 663.742951,2101.526763 662.447710,2098.843912 662.001467,2095.897303 662.455704,2092.943865 663.755801,2090.272104 669.630175,2085.185095 668.830527,2084.380985 664.363656,2080.530521 656.584735,2082.979907 664.747947,2112.810003"/>
    <poly id="1037050750" type="landuse" color="194,194,130" fill="1" layer="-3.00" shape="672.068934,2087.086018 676.659752,2090.949747 678.240052,2093.303517 678.754263,2095.182581 678.506760,2097.304630 677.640028,2099.327004 675.773305,2101.365630 673.547002,2102.284850 669.883203,2102.299967 667.797725,2101.162106 666.437857,2099.713844 665.543072,2097.939583 665.191588,2095.985384 665.411583,2094.018716 666.181954,2092.183940 672.068934,2087.086018"/>
    <poly id="1037051678" type="landuse" color="194,194,130" fill="1" layer="-3.00" shape="684.547846,2036.502719 720.591448,2026.511678 723.534779,2043.884224 723.577474,2044.653094 715.327243,2047.060892 715.354931,2046.170773 715.269814,2043.530928 714.480941,2041.012601 713.034727,2038.805839 710.592040,2036.771237 707.630878,2035.640602 704.459717,2035.530551 701.420170,2036.435810 698.830358,2038.272775 697.229575,2040.371616 697.159221,2042.663688 696.674752,2043.757490 695.772272,2044.966580 695.077598,2045.644878 694.168037,2045.818531 692.963652,2045.441641 689.372163,2043.409616 686.608769,2041.247072 685.657269,2040.607341 685.098848,2039.495656 684.547846,2036.502719"/>
    <poly id="1037051679" type="landuse" color="194,194,130" fill="1" layer="-3.00" shape="702.117697,2050.073860 701.526917,2049.763153 700.581146,2048.789544 700.393663,2047.773278 700.229483,2046.846471 700.217812,2045.354526 700.354644,2043.531155 701.015982,2042.262268 702.222439,2040.345917 703.997339,2039.318777 706.365984,2038.791648 708.662443,2039.576909 710.589123,2040.923581 711.581408,2042.443478 712.123114,2044.167163 712.178906,2045.982706 711.738849,2047.745213 711.431528,2048.285431 703.034519,2050.200908 702.117697,2050.073860"/>
    <poly id="1037052068" type="landuse" color="194,194,130" fill="1" layer="-3.00" shape="1125.483234,2327.061616 1127.740685,2329.015342 1130.201565,2330.694267 1132.710439,2331.750604 1137.296240,2332.987499 1140.476136,2333.298411 1143.852873,2333.356676 1146.060859,2333.138729 1148.500049,2332.835713 1151.156239,2332.191338 1182.694041,2360.856292 1184.927104,2364.579689 1182.289001,2367.773690 1182.510581,2369.324927 1189.908286,2375.998538 1189.058194,2377.765054 1177.097945,2367.071788 1176.920626,2366.912872 1177.032576,2364.743975 1177.073691,2362.362338 1176.320417,2359.599617 1174.642341,2356.097321 1171.951276,2352.288096 1168.955847,2349.564600 1164.004121,2346.506764 1163.845017,2348.530125 1158.159349,2346.984776 1129.346036,2339.975109 1125.611975,2338.674989 1123.383197,2336.499109 1122.097660,2333.994396 1122.043715,2331.722444 1122.640635,2329.873621 1124.416099,2327.733419 1125.483234,2327.061616"/>
    <poly id="1037052069" type="landuse" color="194,194,130" fill="1" layer="-3.00" shape="1170.243669,2372.798009 1169.177703,2372.323178 1169.803057,2369.907096 1167.918078,2367.959776 1162.857009,2365.122702 1151.101850,2358.730180 1124.099967,2344.259664 1111.613059,2331.687250 1103.864881,2329.482983 1106.820806,2329.099795 1109.288088,2328.607990 1111.183468,2326.714765 1113.963926,2324.625290 1115.370410,2323.358185 1117.068635,2322.096112 1118.548649,2321.965786 1120.599026,2322.246068 1122.192498,2323.097357 1121.922259,2324.005557 1120.765215,2325.210168 1119.277653,2327.577986 1117.919485,2331.083548 1118.162722,2335.340342 1119.840468,2338.864873 1122.164722,2341.265047 1124.626750,2342.877194 1155.402925,2351.278864 1163.093253,2353.593552 1165.947213,2354.800587 1167.279061,2356.059279 1168.979042,2358.292849 1170.092206,2361.429152 1170.752278,2367.073571 1170.673407,2369.844192 1170.243669,2372.798009"/>
    <poly id="1037090705" type="amenity" color="237,199,199" fill="1" layer="-1.00" shape="1355.876254,1342.668819 1352.251150,1328.200715 1363.363904,1325.209075 1364.244811,1328.497257 1366.358608,1328.010603 1367.751603,1333.289222 1369.286450,1332.881612 1370.911757,1338.732007 1355.876254,1342.668819"/>
    <poly id="1037090706" type="amenity" color="237,199,199" fill="1" layer="-1.00" shape="1380.513201,1333.710421 1379.978400,1331.597132 1388.979915,1329.303767 1389.520921,1331.417165 1380.513201,1333.710421"/>
    <poly id="1037090707" type="amenity" color="237,199,199" fill="1" layer="-1.00" shape="1381.021184,1329.477746 1380.368371,1327.006176 1389.433332,1324.635983 1390.086140,1327.107554 1381.021184,1329.477746"/>
    <poly id="1037090708" type="amenity" color="237,199,199" fill="1" layer="-1.00" shape="1383.392696,1324.865418 1382.950108,1323.165626 1390.991650,1321.078301 1391.434234,1322.778095 1383.392696,1324.865418"/>
    <poly id="1037101059" type="landuse" color="194,194,130" fill="1" layer="-3.00" shape="1539.226718,1071.017361 1520.840128,1065.054418 1502.958693,1052.877266 1501.025394,1051.541262 1500.080039,1049.465373 1502.650588,1045.569033 1539.226718,1071.017361"/>
    <poly id="1037101060" type="landuse" color="194,194,130" fill="1" layer="-3.00" shape="1464.030622,1016.534372 1497.464222,1041.638451 1494.899848,1045.178663 1493.477228,1045.554778 1492.074125,1045.163093 1460.512487,1020.993209 1464.030622,1016.534372"/>
    <poly id="1037101061" type="landuse" color="194,194,130" fill="1" layer="-3.00" shape="1458.833736,1019.661633 1462.566684,1015.351238 1432.131026,991.056357 1430.506405,993.054334 1430.546572,994.680367 1430.944989,996.780167 1434.015555,999.516254 1458.833736,1019.661633"/>
    <poly id="1037101062" type="landuse" color="194,194,130" fill="1" layer="-3.00" shape="1427.547872,987.793122 1412.476368,974.718756 1410.966701,975.817002 1410.463446,977.979119 1411.140562,980.484508 1416.499100,985.241763 1421.791207,989.530313 1423.850004,990.078048 1425.191767,990.067880 1427.547872,987.793122"/>
    <poly id="1037330949" type="landuse" color="194,194,130" fill="1" layer="-3.00" shape="2125.969028,1338.982554 2144.335196,1333.570369 2138.456972,1332.320957 2135.036223,1331.181305 2130.861075,1330.919070 2129.448376,1331.439869 2127.985377,1333.061908 2127.113906,1335.662814 2125.969028,1338.982554"/>
    <poly id="1037330950" type="landuse" color="194,194,130" fill="1" layer="-3.00" shape="2127.531398,1340.913521 2150.327738,1333.964586 2155.781699,1333.904093 2160.633435,1333.476836 2162.169708,1333.347846 2204.267562,1322.205834 2206.254310,1328.986897 2206.045094,1329.940632 2204.302388,1332.993845 2203.799678,1332.973916 2202.566946,1328.532741 2160.309056,1340.306523 2161.674507,1345.328896 2159.621731,1345.871890 2158.210482,1340.982307 2129.288664,1349.104363 2130.400242,1352.663929 2129.982121,1352.779078 2124.184483,1346.209756 2124.314960,1344.074596 2125.074234,1342.562714 2126.147996,1341.535026 2127.531398,1340.913521"/>
    <poly id="1040208014" type="building" color="255,230,230" fill="1" layer="-1.00" shape="2009.337331,1924.129396 2012.131070,1923.454548 2013.080774,1927.389769 2013.847640,1927.213902 2014.432669,1929.628736 2010.878081,1930.490687 2009.337331,1924.129396"/>
    <poly id="1040208015" type="building" color="255,230,230" fill="1" layer="-1.00" shape="2010.427259,1921.454354 2007.986254,1911.526081 2015.975043,1909.572617 2018.416031,1919.500895 2010.427259,1921.454354"/>
    <poly id="1040208016" type="building" color="255,230,230" fill="1" layer="-1.00" shape="1990.385711,1906.309473 1990.429702,1908.770525 1995.968668,1908.778125 1995.996348,1911.817782 1991.118907,1911.977581 1991.188338,1912.980718 1989.307157,1913.315263 1989.032672,1912.319680 1980.263077,1913.825403 1976.165721,1912.340086 1977.392992,1908.910422 1979.547108,1909.660486 1978.978950,1906.277424 1984.602700,1906.052706 1990.385711,1906.309473"/>
    <poly id="1042694176" type="parking" color="184,184,179" fill="1" layer="-1.00" shape="1643.096349,1778.139917 1651.426622,1775.835463 1654.047343,1775.112846 1652.557663,1769.709981 1649.266275,1757.919174 1638.321257,1760.957494 1643.096349,1778.139917"/>
    <poly id="1042694177" type="parking" color="184,184,179" fill="1" layer="-1.00" shape="1657.986082,1535.855223 1669.620236,1532.862310 1662.719321,1506.124670 1651.085100,1509.117603 1652.702988,1515.368759 1657.037714,1532.176165 1657.986082,1535.855223"/>
    <poly id="1042694179" type="parking" color="184,184,179" fill="1" layer="-1.00" shape="1697.991983,1669.171583 1693.341969,1649.441935 1694.919616,1649.068584 1689.633070,1626.656083 1698.362750,1624.614702 1706.930443,1622.603920 1710.348965,1636.367429 1714.159947,1642.200305 1719.418380,1664.077992 1697.991983,1669.171583"/>
    <poly id="1042694182" type="parking" color="184,184,179" fill="1" layer="-1.00" shape="1663.227353,1776.084993 1661.360649,1769.150424 1678.754972,1764.487559 1680.621650,1771.422135 1663.227353,1776.084993"/>
    <poly id="1042694188" type="parking" color="184,184,179" fill="1" layer="-1.00" shape="1594.523278,1790.967234 1617.412170,1784.217531 1607.769048,1744.819260 1583.377829,1751.888054 1594.523278,1790.967234"/>
    <poly id="1042694189" type="building" color="255,230,230" fill="1" layer="-1.00" shape="1709.603280,1737.493079 1719.125046,1735.242864 1717.533908,1728.535710 1716.052979,1722.275772 1706.556212,1724.515296 1708.037540,1730.752972 1705.605541,1731.334116 1706.757189,1736.174501 1709.157951,1735.603947 1709.603280,1737.493079"/>
    <poly id="104295257" type="building" color="255,230,230" fill="1" layer="-1.00" shape="1516.624681,1155.955812 1522.831760,1146.856872 1523.137700,1146.405745 1463.568199,1105.975650 1457.055257,1115.525806 1516.624681,1155.955812"/>
    <poly id="104295258" type="building" color="255,230,230" fill="1" layer="-1.00" shape="1396.788343,1053.966326 1389.566827,1063.192611 1445.878674,1107.105345 1453.100051,1097.890283 1396.788343,1053.966326"/>
    <poly id="1046940282" type="amenity" color="237,199,199" fill="1" layer="-1.00" shape="2141.547830,2010.834766 2136.415878,2009.219875 2138.664628,2002.067590 2143.802796,2003.682591 2141.547830,2010.834766"/>
    <poly id="1054064835" type="building" color="255,230,230" fill="1" layer="-1.00" shape="1675.581625,2245.467169 1678.464368,2237.869248 1676.934608,2237.286037 1679.055698,2231.712125 1680.844623,2232.388900 1683.590451,2225.167107 1682.745260,2224.851840 1684.951121,2219.045621 1686.073712,2219.477035 1688.878325,2212.089279 1687.373194,2211.517626 1692.520241,2197.969790 1694.000741,2198.529884 1696.434337,2192.126475 1695.909993,2191.928108 1698.760026,2184.429823 1688.717152,2180.637191 1685.717399,2188.533650 1688.036893,2189.408902 1685.831014,2195.215119 1682.894647,2194.106497 1677.650259,2207.897567 1680.093119,2208.819489 1677.815497,2214.824847 1676.038979,2214.148289 1673.163207,2221.701804 1674.915086,2222.366800 1672.748418,2228.062380 1670.163765,2227.082335 1667.222650,2234.823970 1669.714768,2235.769008 1667.229255,2242.305118 1675.581625,2245.467169"/>
    <poly id="1054064836" type="building" color="255,230,230" fill="1" layer="-1.00" shape="1652.564188,2301.564602 1655.453063,2293.966772 1653.917114,2293.383462 1656.038149,2287.809538 1657.827053,2288.486304 1660.572810,2281.264496 1659.727628,2280.949234 1661.933239,2275.154132 1663.056011,2275.574411 1665.860358,2268.197769 1664.515667,2267.684574 1667.157489,2260.728143 1657.565200,2257.099265 1654.897789,2264.099786 1657.075252,2264.928025 1654.797882,2270.922267 1653.021385,2270.245718 1650.145687,2277.799248 1651.897546,2278.464235 1649.730741,2284.170955 1647.146117,2283.190924 1644.205272,2290.921446 1646.697362,2291.866470 1644.211912,2298.402595 1652.564188,2301.564602"/>
    <poly id="1054064840" type="building" color="255,230,230" fill="1" layer="-1.00" shape="1462.144521,1258.432273 1468.648516,1248.670455 1413.854121,1212.298037 1407.350393,1222.048808 1462.144521,1258.432273"/>
    <poly id="1054064841" type="building" color="255,230,230" fill="1" layer="-1.00" shape="1340.124090,1172.581933 1348.242248,1162.847853 1293.491317,1117.371443 1285.379413,1127.105733 1340.124090,1172.581933"/>
    <poly id="1055276556" type="landuse" color="194,194,130" fill="1" layer="-3.00" shape="711.038780,2053.444139 711.593260,2052.974956 713.482179,2051.092579 714.776211,2048.776966 725.663538,2045.757594 726.675692,2049.014495 711.038780,2053.444139"/>
    <poly id="1055276557" type="landuse" color="194,194,130" fill="1" layer="-3.00" shape="729.733095,2048.154090 728.813867,2044.909915 754.085303,2037.740111 754.923624,2040.994035 729.733095,2048.154090"/>
    <poly id="1055276558" type="landuse" color="194,194,130" fill="1" layer="-3.00" shape="770.882749,2039.865279 777.070959,2033.147333 776.671289,2031.470607 759.924326,2036.170462 764.438628,2039.064451 767.618763,2039.375085 770.882749,2039.865279"/>
    <poly id="1055287214" type="natural" color="140,196,107" fill="1" layer="-4.00" shape="647.213798,2061.656568 652.619494,2065.801413 651.052747,2068.090105 647.113340,2069.692454 643.837750,2070.604840 643.265869,2069.915963 647.213798,2061.656568"/>
    <poly id="1055287215" type="landuse" color="194,194,130" fill="1" layer="-3.00" shape="646.721828,2071.522594 651.567926,2069.913519 654.081942,2067.062177 658.195940,2070.127311 650.538867,2072.712385 646.721828,2071.522594"/>
    <poly id="1061008371" type="parking" color="184,184,179" fill="1" layer="-1.00" shape="2007.634967,2390.173391 2007.690217,2377.405361 2043.700671,2376.108228 2044.295901,2388.954417 2007.634967,2390.173391"/>
    <poly id="1061089725" type="landuse" color="194,194,130" fill="1" layer="-3.00" shape="1894.643847,2365.525452 1949.846419,2364.951741 1936.438763,2356.535489 1956.249860,2318.574079 1955.712945,2317.674112 1967.777328,2297.389635 1921.929547,2310.160484 1918.526769,2314.086590 1922.291453,2317.892756 1918.924742,2324.736207 1921.632641,2327.188045 1918.775712,2333.283375 1914.482443,2331.304860 1894.643847,2365.525452"/>
    <poly id="1061089726" type="landuse" color="194,194,130" fill="1" layer="-3.00" shape="1783.865806,2367.414394 1783.014562,2325.352127 1797.511282,2310.820498 1824.865851,2303.504014 1795.610816,2360.070994 1807.259171,2367.910676 1783.865806,2367.414394"/>
    <poly id="1061089727" type="landuse" color="194,194,130" fill="1" layer="-3.00" shape="1823.457416,2367.624965 1842.997865,2333.376600 1847.382136,2335.122845 1850.625569,2330.358971 1846.847845,2327.298520 1850.153144,2320.765655 1846.922423,2317.313964 1848.204979,2315.332454 1847.728753,2314.155246 1849.206845,2312.711503 1860.109898,2309.517165 1863.320820,2311.610356 1861.028812,2315.578124 1863.538498,2316.935486 1869.080954,2307.090729 1897.460079,2298.712705 1866.503470,2357.019634 1878.905112,2366.876489 1837.394303,2367.055013 1849.835251,2344.717266 1846.042807,2342.502629 1831.597955,2367.599745 1823.457416,2367.624965"/>
    <poly id="1061089728" type="landuse" color="194,194,130" fill="1" layer="-3.00" shape="1915.899002,2306.325945 1919.615994,2307.526270 1970.256428,2294.093137 1971.058575,2291.535522 1938.200597,2252.666509 1930.722269,2253.515753 1919.246682,2272.797539 1907.676141,2293.613985 1907.699794,2297.243594 1915.899002,2306.325945"/>
    <poly id="1061090050" type="landuse" color="194,194,130" fill="1" layer="-3.00" shape="2047.458431,2342.264214 2061.538599,2346.651462 2066.787112,2311.007771 2061.997037,2310.812763 2061.417508,2313.775022 2057.322555,2321.062081 2058.973063,2322.193033 2047.458431,2342.264214"/>
    <poly id="1061182610" type="building" color="255,230,230" fill="1" layer="-1.00" shape="1811.017167,2231.235599 1813.609158,2232.149062 1815.254999,2227.490936 1812.663006,2226.577471 1811.017167,2231.235599"/>
    <poly id="1061260641" type="landuse" color="194,194,130" fill="1" layer="-3.00" shape="2036.663757,2362.002889 2061.213100,2361.374097 2061.560372,2359.977466 2059.823799,2357.731758 2061.245413,2348.861711 2046.322040,2344.404074 2036.663757,2362.002889"/>