<?xml version="1.0" encoding="UTF-8"?>

<!-- generated on 2023-12-16 12:46:43.762382 by randomTrips.py UNKNOWN
<configuration>
    <net-file value="katrinebjerg-lamp/katrinebjerg-lamp.net.xml"/>
    <output-trip-file value="katrinebjerg-lamp/trips.trips.xml"/>
    <route-file value="katrinebjerg-lamp/katrinebjerg-lamp.rou.xml"/>
    <lanes value="True"/>
    <end value="4000.0"/>
    <insertion-density value="12.5"/>
</configuration>
-->

<routes xmlns:xsi="http://www.w3.org/2001/XMLSchema-instance" xsi:noNamespaceSchemaLocation="http://sumo.dlr.de/xsd/routes_file.xsd">
    <trip id="0" depart="0.00" from="39219528#1" to="-129777438#1"/>
    <trip id="1" depart="3.08" from="-78334879#0" to="-498660810"/>
    <trip id="2" depart="6.15" from="510545199#0" to="498660806#2"/>
    <trip id="3" depart="9.23" from="741976089#0" to="-23346455#4"/>
    <trip id="4" depart="12.30" from="22958996#5" to="-143396996#1"/>
    <trip id="5" depart="15.38" from="-45852057#2" to="272706511"/>
    <trip id="6" depart="18.46" from="-129777446#1" to="-39358584#4"/>
    <trip id="7" depart="21.53" from="41733279#2" to="272706535#1"/>
    <trip id="8" depart="24.61" from="-46995514#2" to="32666154#1"/>
    <trip id="9" depart="27.68" from="51835564#1" to="-109085416#1"/>
    <trip id="10" depart="30.76" from="517466672#2" to="498891940#0"/>
    <trip id="11" depart="33.84" from="1108152805#0" to="-32962614#5"/>
    <trip id="12" depart="36.91" from="788083618#1" to="1108162479#0"/>
    <trip id="13" depart="39.99" from="-23881443#3" to="-24502367#5"/>
    <trip id="14" depart="43.06" from="617916841#5" to="34248693#0"/>
    <trip id="15" depart="46.14" from="51834237#1" to="510545181"/>
    <trip id="16" depart="49.22" from="272706530#3" to="8101084#1"/>
    <trip id="17" depart="52.29" from="146070343#6" to="30643375#3"/>
    <trip id="18" depart="55.37" from="617916824#0" to="37930620#1"/>
    <trip id="19" depart="58.44" from="617916864#3" to="319841465#0"/>
    <trip id="20" depart="61.52" from="498891941#0" to="-16806811#1"/>
    <trip id="21" depart="64.60" from="-498660811" to="-886214049#0"/>
    <trip id="22" depart="67.67" from="-23205071#7" to="-498678909#0"/>
    <trip id="23" depart="70.75" from="-24502371#6" to="-8101187#13"/>
    <trip id="24" depart="73.82" from="38215072#10" to="144928132#4"/>
    <trip id="25" depart="76.90" from="143397007#1" to="-44505462#2"/>
    <trip id="26" depart="79.98" from="-77112774#1" to="788083578"/>
    <trip id="27" depart="83.05" from="41733278#0" to="34876448#11"/>
    <trip id="28" depart="86.13" from="-34876448#6" to="510545181"/>
    <trip id="29" depart="89.20" from="-33393181#9" to="148112148#13"/>
    <trip id="30" depart="92.28" from="884315386#0" to="39238721#5"/>
    <trip id="31" depart="95.36" from="272706537#5" to="498660815#0"/>
    <trip id="32" depart="98.43" from="617916839#5" to="515306042#3"/>
    <trip id="33" depart="101.51" from="-498660813" to="-143396996#7"/>
    <trip id="34" depart="104.59" from="1100998167" to="-78334880#0"/>
    <trip id="35" depart="107.66" from="-438325767#1" to="788083595"/>
    <trip id="36" depart="110.74" from="618988008#1" to="1100998175#0"/>
    <trip id="37" depart="113.81" from="41870567#1" to="161469199"/>
    <trip id="38" depart="116.89" from="769086812#0" to="24502367#10"/>
    <trip id="39" depart="119.97" from="-76656957#2" to="-51835565#0"/>
    <trip id="40" depart="123.04" from="30684317#0" to="-78046223#1"/>
    <trip id="41" depart="126.12" from="319841482#0" to="741996204#1"/>
    <trip id="42" depart="129.19" from="161226647#0" to="-49031494#18"/>
    <trip id="43" depart="132.27" from="941748615#5" to="272706517"/>
    <trip id="44" depart="135.35" from="-23628734#7" to="-184584924"/>
    <trip id="45" depart="138.42" from="-24721948#7" to="37930629#2"/>
    <trip id="46" depart="141.50" from="517466665#0" to="23205067#6"/>
    <trip id="47" depart="144.57" from="-23205067#1" to="148112148#18"/>
    <trip id="48" depart="147.65" from="935908290#7" to="272706530#2"/>
    <trip id="49" depart="150.73" from="809137261#3" to="617916864#4"/>
    <trip id="50" depart="153.80" from="-1108152295#1" to="502197169#0"/>
    <trip id="51" depart="156.88" from="498660807#1" to="272706532#0"/>
    <trip id="52" depart="159.95" from="-77112774#1" to="39358575#0"/>
    <trip id="53" depart="163.03" from="-24721994#1" to="23205071#7"/>
    <trip id="54" depart="166.11" from="23444181" to="788083609#1"/>
    <trip id="55" depart="169.18" from="618988008#0" to="-78046223#2"/>
    <trip id="56" depart="172.26" from="272706501#0" to="-37930626#8"/>
    <trip id="57" depart="175.33" from="76656957#3" to="618988005#1"/>
    <trip id="58" depart="178.41" from="-886214049#2" to="39238721#3"/>
    <trip id="59" depart="181.49" from="34248695#1" to="-32961890#2"/>
    <trip id="60" depart="184.56" from="510624277#1" to="272706533#1"/>
    <trip id="61" depart="187.64" from="515306042#0" to="272706530#3"/>
    <trip id="62" depart="190.71" from="-1043401681#2" to="1100998182#1"/>
    <trip id="63" depart="193.79" from="-1108163309#5" to="788083572"/>
    <trip id="64" depart="196.87" from="618993313" to="617916835#2"/>
    <trip id="65" depart="199.94" from="109085416#0" to="-22958996#0"/>
    <trip id="66" depart="203.02" from="618993313" to="788083596#2"/>
    <trip id="67" depart="206.09" from="-23346455#2" to="26815176#2"/>
    <trip id="68" depart="209.17" from="-23205068#0" to="510624278"/>
    <trip id="69" depart="212.25" from="510624278" to="-30643375#7"/>
    <trip id="70" depart="215.32" from="24721931#0" to="272706537#4"/>
    <trip id="71" depart="218.40" from="-76656957#2" to="618988007#0"/>
    <trip id="72" depart="221.47" from="22958996#9" to="-45852055#0"/>
    <trip id="73" depart="224.55" from="272706531#0" to="510545182"/>
    <trip id="74" depart="227.63" from="-39358584#3" to="1100998171"/>
    <trip id="75" depart="230.70" from="935908290#5" to="41734779#1"/>
    <trip id="76" depart="233.78" from="23205071#13" to="272706522#1"/>
    <trip id="77" depart="236.85" from="-272706505#4" to="-498660812"/>
    <trip id="78" depart="239.93" from="1108150006#0" to="32665946"/>
    <trip id="79" depart="243.01" from="-498660815#0" to="-49031494#3"/>
    <trip id="80" depart="246.08" from="-23205070#2" to="38215072#0"/>
    <trip id="81" depart="249.16" from="-498660813" to="741996211#0"/>
    <trip id="82" depart="252.23" from="617916864#0" to="-23205070#1"/>
    <trip id="83" depart="255.31" from="-498678909#2" to="49031494#2"/>
    <trip id="84" depart="258.39" from="-44505464" to="-30684317#15"/>
    <trip id="85" depart="261.46" from="788083576#1" to="31774911#8"/>
    <trip id="86" depart="264.54" from="24721928#0" to="517466663"/>
    <trip id="87" depart="267.61" from="51834238#0" to="-38215072#8"/>
    <trip id="88" depart="270.69" from="-24502367#6" to="23205071#14"/>
    <trip id="89" depart="273.77" from="22959003#0" to="24721928#4"/>
    <trip id="90" depart="276.84" from="502207850#4" to="498660805#5"/>
    <trip id="91" depart="279.92" from="878161781#2" to="-24502371#1"/>
    <trip id="92" depart="282.99" from="161469212#0" to="1108163309#4"/>
    <trip id="93" depart="286.07" from="617916864#3" to="-51998288#1"/>
    <trip id="94" depart="289.15" from="-38215072#10" to="23628663#3"/>
    <trip id="95" depart="292.22" from="22958996#5" to="-8101187#14"/>
    <trip id="96" depart="295.30" from="-51834239" to="78334880#0"/>
    <trip id="97" depart="298.38" from="23254331#0" to="617916864#5"/>
    <trip id="98" depart="301.45" from="272706535#0" to="-20037814#7"/>
    <trip id="99" depart="304.53" from="961345831" to="617916837#1"/>
    <trip id="100" depart="307.60" from="809137261#11" to="788083569#1"/>
    <trip id="101" depart="310.68" from="617916841#7" to="-34876448#10"/>
    <trip id="102" depart="313.76" from="24782295#0" to="-45852055#4"/>
    <trip id="103" depart="316.83" from="161469198" to="-22958996#12"/>
    <trip id="104" depart="319.91" from="146070343#8" to="878624102"/>
    <trip id="105" depart="322.98" from="-76656957#3" to="517466662#1"/>
    <trip id="106" depart="326.06" from="23628663#0" to="23205067#8"/>
    <trip id="107" depart="329.14" from="788083618#1" to="935908290#6"/>
    <trip id="108" depart="332.21" from="272706537#2" to="502197168#0"/>
    <trip id="109" depart="335.29" from="-32961888#7" to="109085415#1"/>
    <trip id="110" depart="338.36" from="809137261#10" to="319841482#0"/>
    <trip id="111" depart="341.44" from="272706531#3" to="510624267#2"/>
    <trip id="112" depart="344.52" from="-20037909#6" to="319841483#0"/>
    <trip id="113" depart="347.59" from="272706502" to="617916854#1"/>
    <trip id="114" depart="350.67" from="-32962614#2" to="8060770#2"/>
    <trip id="115" depart="353.74" from="-23205071#7" to="-37930630#4"/>
    <trip id="116" depart="356.82" from="32669239#0" to="498660806#1"/>
    <trip id="117" depart="359.90" from="-498660820" to="-272706505#0"/>
    <trip id="118" depart="362.97" from="741976087#1" to="-51835564#1"/>
    <trip id="119" depart="366.05" from="32666531#3" to="37930620#3"/>
    <trip id="120" depart="369.12" from="22958996#13" to="319841482#2"/>
    <trip id="121" depart="372.20" from="272706522#0" to="788083576#0"/>
    <trip id="122" depart="375.28" from="-41733279#1" to="502194482#0"/>
    <trip id="123" depart="378.35" from="-498678909#4" to="161469199"/>
    <trip id="124" depart="381.43" from="49031494#2" to="10972617"/>
    <trip id="125" depart="384.50" from="1100998168" to="510624275#0"/>
    <trip id="126" depart="387.58" from="-23205070#6" to="24430829#1"/>
    <trip id="127" depart="390.66" from="941748615#8" to="935908290#8"/>
    <trip id="128" depart="393.73" from="-23205070#7" to="-45852055#3"/>
    <trip id="129" depart="396.81" from="-76656957#3" to="788083575"/>
    <trip id="130" depart="399.88" from="618995388#0" to="618995388#0"/>
    <trip id="131" depart="402.96" from="143396996#7" to="-33393181#0"/>
    <trip id="132" depart="406.04" from="617916835#1" to="498918206#0"/>
    <trip id="133" depart="409.11" from="34573163#0" to="879830502#0"/>
    <trip id="134" depart="412.19" from="41734779#4" to="-10972673#3"/>
    <trip id="135" depart="415.26" from="56323454#1" to="109085416#1"/>
    <trip id="136" depart="418.34" from="45852055#1" to="788083582#1"/>
    <trip id="137" depart="421.42" from="-30684317#2" to="-26815232#0"/>
    <trip id="138" depart="424.49" from="-24721936#1" to="30643375#6"/>
    <trip id="139" depart="427.57" from="-78046223#2" to="34248695#1"/>
    <trip id="140" depart="430.64" from="502192998#3" to="-41734776#4"/>
    <trip id="141" depart="433.72" from="37930630#4" to="-78046223#2"/>
    <trip id="142" depart="436.80" from="24782363#1" to="741996211#0"/>
    <trip id="143" depart="439.87" from="617916841#3" to="-23881398"/>
    <trip id="144" depart="442.95" from="22959003#0" to="-8101187#1"/>
    <trip id="145" depart="446.02" from="-109085415#0" to="515306040#1"/>
    <trip id="146" depart="449.10" from="38215072#13" to="-78046223#0"/>
    <trip id="147" depart="452.18" from="510581874#0" to="30643375#2"/>
    <trip id="148" depart="455.25" from="23205067#14" to="-1101451303#2"/>
    <trip id="149" depart="458.33" from="-23205071#11" to="682500794"/>
    <trip id="150" depart="461.40" from="741996208#1" to="272706535#1"/>
    <trip id="151" depart="464.48" from="617916835#2" to="319841482#2"/>
    <trip id="152" depart="467.56" from="-32665944#1" to="-30643375#5"/>
    <trip id="153" depart="470.63" from="10972673#1" to="741996205"/>
    <trip id="154" depart="473.71" from="517466667#1" to="617916864#4"/>
    <trip id="155" depart="476.78" from="741996204#1" to="-44505463"/>
    <trip id="156" depart="479.86" from="-51834238#4" to="-24721928#1"/>
    <trip id="157" depart="482.94" from="515306042#1" to="682518206"/>
    <trip id="158" depart="486.01" from="16806811#3" to="37930626#13"/>
    <trip id="159" depart="489.09" from="-32961888#3" to="788083573"/>
    <trip id="160" depart="492.16" from="617916864#6" to="8101187#14"/>
    <trip id="161" depart="495.24" from="51841131#0" to="618995389"/>
    <trip id="162" depart="498.32" from="-129777438#0" to="510581874#2"/>
    <trip id="163" depart="501.39" from="1100998182#1" to="788083574#0"/>
    <trip id="164" depart="504.47" from="517466671#3" to="618988000"/>
    <trip id="165" depart="507.55" from="51841131#0" to="-78334879#0"/>
    <trip id="166" depart="510.62" from="517466661#0" to="-24721948#2"/>
    <trip id="167" depart="513.70" from="618988006" to="617916864#2"/>
    <trip id="168" depart="516.77" from="-49031494#13" to="56323458#1"/>
    <trip id="169" depart="519.85" from="23881391#0" to="1100998163"/>
    <trip id="170" depart="522.93" from="517466667#0" to="-498660815#1"/>
    <trip id="171" depart="526.00" from="-1219845291" to="-39219528#8"/>
    <trip id="172" depart="529.08" from="1100998179" to="618988000"/>
    <trip id="173" depart="532.15" from="809137259#5" to="-8101187#16"/>
    <trip id="174" depart="535.23" from="39219528#8" to="16806811#3"/>
    <trip id="175" depart="538.31" from="8573360" to="272706531#3"/>
    <trip id="176" depart="541.38" from="788083582#1" to="-26815232#0"/>
    <trip id="177" depart="544.46" from="809137261#14" to="-37930626#8"/>
    <trip id="178" depart="547.53" from="8080006#0" to="-78145815#1"/>
    <trip id="179" depart="550.61" from="-24721948#4" to="23205071#7"/>
    <trip id="180" depart="553.69" from="502207850#2" to="1100998174"/>
    <trip id="181" depart="556.76" from="33393181#8" to="272706519#2"/>
    <trip id="182" depart="559.84" from="148112148#10" to="319841461#2"/>
    <trip id="183" depart="562.91" from="-51998293#0" to="502192996#0"/>
    <trip id="184" depart="565.99" from="-107683570#1" to="788083569#0"/>
    <trip id="185" depart="569.07" from="272706530#4" to="502197168#2"/>
    <trip id="186" depart="572.14" from="510581874#2" to="49031494#9"/>
    <trip id="187" depart="575.22" from="129845407#5" to="-23205068#1"/>
    <trip id="188" depart="578.29" from="45852055#3" to="1108149903"/>
    <trip id="189" depart="581.37" from="1100998164" to="617916842#1"/>
    <trip id="190" depart="584.45" from="502194482#0" to="10972673#1"/>
    <trip id="191" depart="587.52" from="10972673#3" to="20037909#2"/>
    <trip id="192" depart="590.60" from="161469199" to="108957436#0"/>
    <trip id="193" depart="593.67" from="-30643375#5" to="23205067#15"/>
    <trip id="194" depart="596.75" from="788083582#2" to="498660807#0"/>
    <trip id="195" depart="599.83" from="741996208#0" to="36889983#2"/>
    <trip id="196" depart="602.90" from="1043401681#0" to="272706535#3"/>
    <trip id="197" depart="605.98" from="-1043401681#2" to="-879830502#1"/>
    <trip id="198" depart="609.05" from="23205067#6" to="319841482#0"/>
    <trip id="199" depart="612.13" from="41734793" to="24720993#1"/>
    <trip id="200" depart="615.21" from="23205071#7" to="-45852055#4"/>
    <trip id="201" depart="618.28" from="24721928#1" to="741996207#1"/>
    <trip id="202" depart="621.36" from="517466667#1" to="-34876449#1"/>
    <trip id="203" depart="624.43" from="-23346455#0" to="272706521#3"/>
    <trip id="204" depart="627.51" from="37930630#0" to="1108153634#0"/>
    <trip id="205" depart="630.59" from="56323456" to="510624274#3"/>
    <trip id="206" depart="633.66" from="49031494#5" to="-498660812"/>
    <trip id="207" depart="636.74" from="-39358575#0" to="-129777438#0"/>
    <trip id="208" depart="639.81" from="-502192996#3" to="24721994#2"/>
    <trip id="209" depart="642.89" from="617916842#0" to="-23205070#5"/>
    <trip id="210" depart="645.97" from="20037850#9" to="37930630#3"/>
    <trip id="211" depart="649.04" from="-39219528#2" to="498678909#7"/>
    <trip id="212" depart="652.12" from="26815225#1" to="-51834238#0"/>
    <trip id="213" depart="655.19" from="41870567#3" to="-109085415#3"/>
    <trip id="214" depart="658.27" from="510624266" to="515306040#0"/>
    <trip id="215" depart="661.35" from="-24721936#0" to="23205070#1"/>
    <trip id="216" depart="664.42" from="-36889983#4" to="788083618#1"/>
    <trip id="217" depart="667.50" from="272706519#2" to="-20037814#6"/>
    <trip id="218" depart="670.57" from="-51834238#2" to="617916842#2"/>
    <trip id="219" depart="673.65" from="23628734#2" to="51834237#1"/>
    <trip id="220" depart="676.73" from="46995387#0" to="879830502#2"/>
    <trip id="221" depart="679.80" from="32669242#0" to="788083608#0"/>
    <trip id="222" depart="682.88" from="741976088" to="34876449#1"/>
    <trip id="223" depart="685.95" from="502192999#3" to="272706511"/>
    <trip id="224" depart="689.03" from="617916834#0" to="272706535#3"/>
    <trip id="225" depart="692.11" from="741996203#1" to="510624261#0"/>
    <trip id="226" depart="695.18" from="24721928#5" to="-77112774#3"/>
    <trip id="227" depart="698.26" from="-51834237#0" to="39219528#8"/>
    <trip id="228" depart="701.34" from="510624278" to="272706524#2"/>
    <trip id="229" depart="704.41" from="37930626#8" to="-8060770#4"/>
    <trip id="230" depart="707.49" from="-23205071#18" to="-878877826#1"/>
    <trip id="231" depart="710.56" from="-78046223#2" to="1100998178#2"/>
    <trip id="232" depart="713.64" from="272706531#1" to="-30986401"/>
    <trip id="233" depart="716.72" from="-498660815#1" to="498678909#1"/>
    <trip id="234" depart="719.79" from="498902079#0" to="-23205067#10"/>
    <trip id="235" depart="722.87" from="20037814#0" to="272706534#1"/>
    <trip id="236" depart="725.94" from="20037909#2" to="-41870567#5"/>
    <trip id="237" depart="729.02" from="22958996#18" to="741996209"/>
    <trip id="238" depart="732.10" from="319841482#0" to="498678909#5"/>
    <trip id="239" depart="735.17" from="617916857#1" to="510624309"/>
    <trip id="240" depart="738.25" from="146070361#1" to="-109085415#4"/>
    <trip id="241" depart="741.32" from="1115682829" to="510624276#1"/>
    <trip id="242" depart="744.40" from="617916853" to="788083609#1"/>
    <trip id="243" depart="747.48" from="22958996#12" to="510624267#2"/>
    <trip id="244" depart="750.55" from="272706533#1" to="34248690#1"/>
    <trip id="245" depart="753.63" from="-46995514#2" to="-49031494#18"/>
    <trip id="246" depart="756.70" from="23205070#8" to="-132453723"/>
    <trip id="247" depart="759.78" from="1101451303#0" to="498660808#0"/>
    <trip id="248" depart="762.86" from="161469212#1" to="-34573163#0"/>
    <trip id="249" depart="765.93" from="24502367#6" to="-30643375#5"/>
    <trip id="250" depart="769.01" from="37930620#0" to="-129777446#4"/>
    <trip id="251" depart="772.08" from="153531786#0" to="30986401"/>
    <trip id="252" depart="775.16" from="-129777446#2" to="39358584#3"/>
    <trip id="253" depart="778.24" from="-30684317#6" to="24502371#10"/>
    <trip id="254" depart="781.31" from="-20037814#6" to="148112148#12"/>
    <trip id="255" depart="784.39" from="-438325767#2" to="1100998185"/>
    <trip id="256" depart="787.46" from="510624277#0" to="148112148#12"/>
    <trip id="257" depart="790.54" from="510624267#1" to="617916835#2"/>
    <trip id="258" depart="793.62" from="-51841131#2" to="-23346162#1"/>
    <trip id="259" depart="796.69" from="-1108163309#4" to="272706533#1"/>
    <trip id="260" depart="799.77" from="998086692" to="129777436#0"/>
    <trip id="261" depart="802.84" from="41733279#2" to="517466661#0"/>
    <trip id="262" depart="805.92" from="41734776#4" to="510624276#2"/>
    <trip id="263" depart="809.00" from="788083607" to="-412534669"/>
    <trip id="264" depart="812.07" from="-1111122234#1" to="-32961890#1"/>
    <trip id="265" depart="815.15" from="-30643375#2" to="49031494#3"/>
    <trip id="266" depart="818.22" from="30684317#15" to="-49031494#11"/>
    <trip id="267" depart="821.30" from="498678909#7" to="510624310#0"/>
    <trip id="268" depart="824.38" from="-34876448#1" to="34573161#1"/>
    <trip id="269" depart="827.45" from="510624259" to="-26815225#1"/>
    <trip id="270" depart="830.53" from="56323458#0" to="8080006#2"/>
    <trip id="271" depart="833.60" from="-24721948#4" to="-129777440#1"/>
    <trip id="272" depart="836.68" from="1100998161#1" to="498660807#0"/>
    <trip id="273" depart="839.76" from="788083618#1" to="161469204"/>
    <trip id="274" depart="842.83" from="502192997#1" to="-23205071#12"/>
    <trip id="275" depart="845.91" from="498660817#0" to="37930629#2"/>
    <trip id="276" depart="848.98" from="-24720993#1" to="515306041#0"/>
    <trip id="277" depart="852.06" from="617916842#1" to="33393181#10"/>
    <trip id="278" depart="855.14" from="-272706505#5" to="878161783"/>
    <trip id="279" depart="858.21" from="515306044" to="127101782#0"/>
    <trip id="280" depart="861.29" from="23205067#2" to="146070343#4"/>
    <trip id="281" depart="864.36" from="272706505#5" to="1111124241"/>
    <trip id="282" depart="867.44" from="617916842#0" to="617118430"/>
    <trip id="283" depart="870.52" from="-24721931#2" to="8060770#2"/>
    <trip id="284" depart="873.59" from="38215072#1" to="617916834#1"/>
    <trip id="285" depart="876.67" from="498918206#2" to="23254331#0"/>
    <trip id="286" depart="879.74" from="510545181" to="809137259#2"/>
    <trip id="287" depart="882.82" from="-78046223#0" to="51998288#4"/>
    <trip id="288" depart="885.90" from="272706530#4" to="25753947#1"/>
    <trip id="289" depart="888.97" from="23205070#7" to="510545184"/>
    <trip id="290" depart="892.05" from="-77112774#5" to="617916854#0"/>
    <trip id="291" depart="895.13" from="617916834#0" to="-23346455#3"/>
    <trip id="292" depart="898.20" from="618995388#1" to="-51834238#0"/>
    <trip id="293" depart="901.28" from="24430829#0" to="34876448#2"/>
    <trip id="294" depart="904.35" from="146070343#8" to="-129777446#9"/>
    <trip id="295" depart="907.43" from="617916842#1" to="-37930627#6"/>
    <trip id="296" depart="910.51" from="-439027588" to="517466672#0"/>
    <trip id="297" depart="913.58" from="1108152805#0" to="618995388#1"/>
    <trip id="298" depart="916.66" from="498891940#0" to="-8101187#0"/>
    <trip id="299" depart="919.73" from="-1108150006#0" to="788083596#2"/>
    <trip id="300" depart="922.81" from="-23346455#2" to="502197168#2"/>
    <trip id="301" depart="925.89" from="24782363#1" to="510624277#2"/>
    <trip id="302" depart="928.96" from="498660817#0" to="41733279#1"/>
    <trip id="303" depart="932.04" from="25753947#2" to="517466669#1"/>
    <trip id="304" depart="935.11" from="-23881443#3" to="-498660807#0"/>
    <trip id="305" depart="938.19" from="498660818#0" to="1100998164"/>
    <trip id="306" depart="941.27" from="319841461#2" to="24721950"/>
    <trip id="307" depart="944.34" from="272706526#1" to="23205070#10"/>
    <trip id="308" depart="947.42" from="510624247" to="1108150006#1"/>
    <trip id="309" depart="950.49" from="498891940#2" to="-788083609#1"/>
    <trip id="310" depart="953.57" from="-51835565#0" to="-272706505#2"/>
    <trip id="311" depart="956.65" from="-38215072#5" to="-272706498#3"/>
    <trip id="312" depart="959.72" from="272706530#2" to="510624280#1"/>
    <trip id="313" depart="962.80" from="-37930629#1" to="-46995514#0"/>
    <trip id="314" depart="965.87" from="24771986#2" to="502197171#1"/>
    <trip id="315" depart="968.95" from="8101187#12" to="272706526#1"/>
    <trip id="316" depart="972.03" from="-8101084#2" to="-24502371#3"/>
    <trip id="317" depart="975.10" from="-39219528#10" to="-498660815#1"/>
    <trip id="318" depart="978.18" from="-37930626#5" to="-1108153019#1"/>
    <trip id="319" depart="981.25" from="272706530#1" to="-8060770#4"/>
    <trip id="320" depart="984.33" from="8101084#1" to="30643375#7"/>
    <trip id="321" depart="987.41" from="498678909#2" to="-30643375#2"/>
    <trip id="322" depart="990.48" from="618988002#1" to="26815262#1"/>
    <trip id="323" depart="993.56" from="618988006" to="319841461#1"/>
    <trip id="324" depart="996.63" from="24502371#11" to="23346162#4"/>
    <trip id="325" depart="999.71" from="-37930628" to="-20037850#1"/>
    <trip id="326" depart="1002.79" from="788083583#1" to="24771986#2"/>
    <trip id="327" depart="1005.86" from="56323458#2" to="184584924"/>
    <trip id="328" depart="1008.94" from="-23205070#9" to="37930630#1"/>
    <trip id="329" depart="1012.01" from="-20037850#6" to="-32666531#3"/>
    <trip id="330" depart="1015.09" from="30684317#12" to="1100998161#1"/>
    <trip id="331" depart="1018.17" from="935908290#1" to="-272706498#0"/>
    <trip id="332" depart="1021.24" from="510624277#4" to="34573159"/>
    <trip id="333" depart="1024.32" from="517466664" to="-498660814#0"/>
    <trip id="334" depart="1027.39" from="272706522#0" to="23628734#5"/>
    <trip id="335" depart="1030.47" from="23205071#9" to="617916864#4"/>
    <trip id="336" depart="1033.55" from="884315386#1" to="1100998163"/>
    <trip id="337" depart="1036.62" from="36911651#0" to="34876448#12"/>
    <trip id="338" depart="1039.70" from="510545200#1" to="788083596#2"/>
    <trip id="339" depart="1042.77" from="-41734793" to="-45852053#0"/>
    <trip id="340" depart="1045.85" from="44505464" to="-32962614#9"/>
    <trip id="341" depart="1048.93" from="-352043479#0" to="-23205071#10"/>
    <trip id="342" depart="1052.00" from="-108957436#0" to="23628734#5"/>
    <trip id="343" depart="1055.08" from="32666531#0" to="-886214049#4"/>
    <trip id="344" depart="1058.15" from="-498660815#1" to="498918211#6"/>
    <trip id="345" depart="1061.23" from="498891940#2" to="23881443#1"/>
    <trip id="346" depart="1064.31" from="498660814#0" to="78543270#1"/>
    <trip id="347" depart="1067.38" from="517466661#1" to="37930627#4"/>
    <trip id="348" depart="1070.46" from="45837874#0" to="788083575"/>
    <trip id="349" depart="1073.53" from="229638920" to="272706535#1"/>
    <trip id="350" depart="1076.61" from="412534669" to="741996213#1"/>
    <trip id="351" depart="1079.69" from="617118433#2" to="-23205070#2"/>
    <trip id="352" depart="1082.76" from="-34573159" to="1100998167"/>
    <trip id="353" depart="1085.84" from="510624260" to="31774911#4"/>
    <trip id="354" depart="1088.92" from="-8101187#5" to="-272706537#3"/>
    <trip id="355" depart="1091.99" from="498660816#0" to="498891940#1"/>
    <trip id="356" depart="1095.07" from="788083595" to="272706505#9"/>
    <trip id="357" depart="1098.14" from="26815176#4" to="-23205071#7"/>
    <trip id="358" depart="1101.22" from="-148112148#13" to="23205071#17"/>
    <trip id="359" depart="1104.30" from="1100998175#0" to="-51998294#0"/>
    <trip id="360" depart="1107.37" from="-23881391#0" to="8080006#0"/>
    <trip id="361" depart="1110.45" from="617916836#0" to="319841461#1"/>
    <trip id="362" depart="1113.52" from="788083608#0" to="961345831"/>
    <trip id="363" depart="1116.60" from="49031494#3" to="-78543270#3"/>
    <trip id="364" depart="1119.68" from="-148112148#14" to="510624277#0"/>
    <trip id="365" depart="1122.75" from="24502371#3" to="41734791"/>
    <trip id="366" depart="1125.83" from="77112774#0" to="-37930627#5"/>
    <trip id="367" depart="1128.90" from="319841482#0" to="38215072#8"/>
    <trip id="368" depart="1131.98" from="25753947#4" to="-23628734#7"/>
    <trip id="369" depart="1135.06" from="1111122234#1" to="1108153019#0"/>
    <trip id="370" depart="1138.13" from="49031494#11" to="617916864#1"/>
    <trip id="371" depart="1141.21" from="1100998181#0" to="498678909#0"/>
    <trip id="372" depart="1144.28" from="-8101187#4" to="788083596#0"/>
    <trip id="373" depart="1147.36" from="51998293#1" to="272706537#4"/>
    <trip id="374" depart="1150.44" from="23628663#0" to="1100998175#0"/>
    <trip id="375" depart="1153.51" from="1100998175#2" to="809137261#3"/>
    <trip id="376" depart="1156.59" from="161469212#1" to="272706521#2"/>
    <trip id="377" depart="1159.66" from="879830502#1" to="44505464"/>
    <trip id="378" depart="1162.74" from="272706531#3" to="22958996#19"/>
    <trip id="379" depart="1165.82" from="-37930630#1" to="143396996#6"/>
    <trip id="380" depart="1168.89" from="510624274#3" to="37930627#5"/>
    <trip id="381" depart="1171.97" from="510624276#2" to="-41734776#4"/>
    <trip id="382" depart="1175.04" from="272706534#1" to="788083569#2"/>
    <trip id="383" depart="1178.12" from="23205071#13" to="498891940#1"/>
    <trip id="384" depart="1181.20" from="-272706505#5" to="8101084#1"/>
    <trip id="385" depart="1184.27" from="34248695#0" to="-498918211#7"/>
    <trip id="386" depart="1187.35" from="-32962614#5" to="272706537#6"/>
    <trip id="387" depart="1190.42" from="272706535#2" to="-23881443#3"/>
    <trip id="388" depart="1193.50" from="886214049#4" to="76656957#4"/>
    <trip id="389" depart="1196.58" from="23881443#1" to="-26815262#0"/>
    <trip id="390" depart="1199.65" from="617916835#0" to="272706505#2"/>
    <trip id="391" depart="1202.73" from="502192998#1" to="272706517"/>
    <trip id="392" depart="1205.80" from="-78145815#0" to="617916836#2"/>
    <trip id="393" depart="1208.88" from="8101187#8" to="-51834237#1"/>
    <trip id="394" depart="1211.96" from="272706535#1" to="148112148#6"/>
    <trip id="395" depart="1215.03" from="78145818#0" to="272706515"/>
    <trip id="396" depart="1218.11" from="618993317#0" to="618988000"/>
    <trip id="397" depart="1221.18" from="-78334880#1" to="517466667#0"/>
    <trip id="398" depart="1224.26" from="20037909#0" to="788083576#0"/>
    <trip id="399" depart="1227.34" from="272706508" to="617118424#2"/>
    <trip id="400" depart="1230.41" from="-8101084#1" to="109085415#7"/>
    <trip id="401" depart="1233.49" from="319841482#1" to="941748615#9"/>
    <trip id="402" depart="1236.56" from="24782363#4" to="-32666531#1"/>
    <trip id="403" depart="1239.64" from="272706531#0" to="1117349266#0"/>
    <trip id="404" depart="1242.72" from="272706535#1" to="272706535#0"/>
    <trip id="405" depart="1245.79" from="23628663#1" to="1100998181#0"/>
    <trip id="406" depart="1248.87" from="-37930630#4" to="498891940#0"/>