<?xml version="1.0" encoding="UTF-8"?>

<!-- generated on 2023-12-16 13:13:56.769422 by randomTrips.py UNKNOWN
<configuration>
    <net-file value="katrinebjerg-lamp/katrinebjerg-lamp.net.xml"/>
    <output-trip-file value="katrinebjerg-lamp/trips.trips.xml"/>
    <route-file value="katrinebjerg-lamp/katrinebjerg-lamp.rou.xml"/>
    <lanes value="True"/>
    <end value="4000.0"/>
    <insertion-density value="8.0"/>
</configuration>
-->

<routes xmlns:xsi="http://www.w3.org/2001/XMLSchema-instance" xsi:noNamespaceSchemaLocation="http://sumo.dlr.de/xsd/routes_file.xsd">
    <trip id="0" depart="0.00" from="39219528#1" to="-129777438#1"/>
    <trip id="1" depart="4.81" from="-78334879#0" to="-498660810"/>
    <trip id="2" depart="9.61" from="510545199#0" to="498660806#2"/>
    <trip id="3" depart="14.42" from="741976089#0" to="-23346455#4"/>
    <trip id="4" depart="19.23" from="22958996#5" to="-143396996#1"/>
    <trip id="5" depart="24.03" from="-45852057#2" to="272706511"/>
    <trip id="6" depart="28.84" from="-129777446#1" to="-39358584#4"/>
    <trip id="7" depart="33.64" from="41733279#2" to="272706535#1"/>
    <trip id="8" depart="38.45" from="-46995514#2" to="32666154#1"/>
    <trip id="9" depart="43.26" from="51835564#1" to="-109085416#1"/>
    <trip id="10" depart="48.06" from="517466672#2" to="498891940#0"/>
    <trip id="11" depart="52.87" from="1108152805#0" to="-32962614#5"/>
    <trip id="12" depart="57.68" from="788083618#1" to="1108162479#0"/>
    <trip id="13" depart="62.48" from="-23881443#3" to="-24502367#5"/>
    <trip id="14" depart="67.29" from="617916841#5" to="34248693#0"/>
    <trip id="15" depart="72.09" from="51834237#1" to="510545181"/>
    <trip id="16" depart="76.90" from="272706530#3" to="8101084#1"/>
    <trip id="17" depart="81.71" from="146070343#6" to="30643375#3"/>
    <trip id="18" depart="86.51" from="617916824#0" to="37930620#1"/>
    <trip id="19" depart="91.32" from="617916864#3" to="319841465#0"/>
    <trip id="20" depart="96.13" from="498891941#0" to="-16806811#1"/>
    <trip id="21" depart="100.93" from="-498660811" to="-886214049#0"/>
    <trip id="22" depart="105.74" from="-23205071#7" to="-498678909#0"/>
    <trip id="23" depart="110.54" from="-24502371#6" to="-8101187#13"/>
    <trip id="24" depart="115.35" from="38215072#10" to="144928132#4"/>
    <trip id="25" depart="120.16" from="143397007#1" to="-44505462#2"/>
    <trip id="26" depart="124.96" from="-77112774#1" to="788083578"/>
    <trip id="27" depart="129.77" from="41733278#0" to="34876448#11"/>
    <trip id="28" depart="134.58" from="-34876448#6" to="510545181"/>
    <trip id="29" depart="139.38" from="-33393181#9" to="148112148#13"/>
    <trip id="30" depart="144.19" from="884315386#0" to="39238721#5"/>
    <trip id="31" depart="149.00" from="272706537#5" to="498660815#0"/>
    <trip id="32" depart="153.80" from="617916839#5" to="515306042#3"/>
    <trip id="33" depart="158.61" from="-498660813" to="-143396996#7"/>
    <trip id="34" depart="163.41" from="1100998167" to="-78334880#0"/>
    <trip id="35" depart="168.22" from="-438325767#1" to="788083595"/>
    <trip id="36" depart="173.03" from="618988008#1" to="1100998175#0"/>
    <trip id="37" depart="177.83" from="41870567#1" to="161469199"/>
    <trip id="38" depart="182.64" from="769086812#0" to="24502367#10"/>
    <trip id="39" depart="187.45" from="-76656957#2" to="-51835565#0"/>
    <trip id="40" depart="192.25" from="30684317#0" to="-78046223#1"/>
    <trip id="41" depart="197.06" from="319841482#0" to="741996204#1"/>
    <trip id="42" depart="201.86" from="161226647#0" to="-49031494#18"/>
    <trip id="43" depart="206.67" from="941748615#5" to="272706517"/>
    <trip id="44" depart="211.48" from="-23628734#7" to="-184584924"/>
    <trip id="45" depart="216.28" from="-24721948#7" to="37930629#2"/>
    <trip id="46" depart="221.09" from="517466665#0" to="23205067#6"/>
    <trip id="47" depart="225.90" from="-23205067#1" to="148112148#18"/>
    <trip id="48" depart="230.70" from="935908290#7" to="272706530#2"/>
    <trip id="49" depart="235.51" from="809137261#3" to="617916864#4"/>
    <trip id="50" depart="240.31" from="-1108152295#1" to="502197169#0"/>
    <trip id="51" depart="245.12" from="498660807#1" to="272706532#0"/>
    <trip id="52" depart="249.93" from="-77112774#1" to="39358575#0"/>
    <trip id="53" depart="254.73" from="-24721994#1" to="23205071#7"/>
    <trip id="54" depart="259.54" from="23444181" to="788083609#1"/>
    <trip id="55" depart="264.35" from="618988008#0" to="-78046223#2"/>
    <trip id="56" depart="269.15" from="272706501#0" to="-37930626#8"/>
    <trip id="57" depart="273.96" from="76656957#3" to="618988005#1"/>
    <trip id="58" depart="278.77" from="-886214049#2" to="39238721#3"/>
    <trip id="59" depart="283.57" from="34248695#1" to="-32961890#2"/>
    <trip id="60" depart="288.38" from="510624277#1" to="272706533#1"/>
    <trip id="61" depart="293.18" from="515306042#0" to="272706530#3"/>
    <trip id="62" depart="297.99" from="-1043401681#2" to="1100998182#1"/>
    <trip id="63" depart="302.80" from="-1108163309#5" to="788083572"/>
    <trip id="64" depart="307.60" from="618993313" to="617916835#2"/>
    <trip id="65" depart="312.41" from="109085416#0" to="-22958996#0"/>
    <trip id="66" depart="317.22" from="618993313" to="788083596#2"/>
    <trip id="67" depart="322.02" from="-23346455#2" to="26815176#2"/>
    <trip id="68" depart="326.83" from="-23205068#0" to="510624278"/>
    <trip id="69" depart="331.63" from="510624278" to="-30643375#7"/>
    <trip id="70" depart="336.44" from="24721931#0" to="272706537#4"/>
    <trip id="71" depart="341.25" from="-76656957#2" to="618988007#0"/>
    <trip id="72" depart="346.05" from="22958996#9" to="-45852055#0"/>
    <trip id="73" depart="350.86" from="272706531#0" to="510545182"/>
    <trip id="74" depart="355.67" from="-39358584#3" to="1100998171"/>
    <trip id="75" depart="360.47" from="935908290#5" to="41734779#1"/>
    <trip id="76" depart="365.28" from="23205071#13" to="272706522#1"/>
    <trip id="77" depart="370.08" from="-272706505#4" to="-498660812"/>
    <trip id="78" depart="374.89" from="1108150006#0" to="32665946"/>
    <trip id="79" depart="379.70" from="-498660815#0" to="-49031494#3"/>
    <trip id="80" depart="384.50" from="-23205070#2" to="38215072#0"/>
    <trip id="81" depart="389.31" from="-498660813" to="741996211#0"/>
    <trip id="82" depart="394.12" from="617916864#0" to="-23205070#1"/>
    <trip id="83" depart="398.92" from="-498678909#2" to="49031494#2"/>
    <trip id="84" depart="403.73" from="-44505464" to="-30684317#15"/>
    <trip id="85" depart="408.54" from="788083576#1" to="31774911#8"/>
    <trip id="86" depart="413.34" from="24721928#0" to="517466663"/>
    <trip id="87" depart="418.15" from="51834238#0" to="-38215072#8"/>
    <trip id="88" depart="422.95" from="-24502367#6" to="23205071#14"/>
    <trip id="89" depart="427.76" from="22959003#0" to="24721928#4"/>
    <trip id="90" depart="432.57" from="502207850#4" to="498660805#5"/>
    <trip id="91" depart="437.37" from="878161781#2" to="-24502371#1"/>
    <trip id="92" depart="442.18" from="161469212#0" to="1108163309#4"/>
    <trip id="93" depart="446.99" from="617916864#3" to="-51998288#1"/>
    <trip id="94" depart="451.79" from="-38215072#10" to="23628663#3"/>
    <trip id="95" depart="456.60" from="22958996#5" to="-8101187#14"/>
    <trip id="96" depart="461.40" from="-51834239" to="78334880#0"/>
    <trip id="97" depart="466.21" from="23254331#0" to="617916864#5"/>
    <trip id="98" depart="471.02" from="272706535#0" to="-20037814#7"/>
    <trip id="99" depart="475.82" from="961345831" to="617916837#1"/>
    <trip id="100" depart="480.63" from="809137261#11" to="788083569#1"/>
    <trip id="101" depart="485.44" from="617916841#7" to="-34876448#10"/>
    <trip id="102" depart="490.24" from="24782295#0" to="-45852055#4"/>
    <trip id="103" depart="495.05" from="161469198" to="-22958996#12"/>
    <trip id="104" depart="499.86" from="146070343#8" to="878624102"/>
    <trip id="105" depart="504.66" from="-76656957#3" to="517466662#1"/>
    <trip id="106" depart="509.47" from="23628663#0" to="23205067#8"/>
    <trip id="107" depart="514.27" from="788083618#1" to="935908290#6"/>
    <trip id="108" depart="519.08" from="272706537#2" to="502197168#0"/>
    <trip id="109" depart="523.89" from="-32961888#7" to="109085415#1"/>
    <trip id="110" depart="528.69" from="809137261#10" to="319841482#0"/>
    <trip id="111" depart="533.50" from="272706531#3" to="510624267#2"/>
    <trip id="112" depart="538.31" from="-20037909#6" to="319841483#0"/>
    <trip id="113" depart="543.11" from="272706502" to="617916854#1"/>
    <trip id="114" depart="547.92" from="-32962614#2" to="8060770#2"/>
    <trip id="115" depart="552.72" from="-23205071#7" to="-37930630#4"/>
    <trip id="116" depart="557.53" from="32669239#0" to="498660806#1"/>
    <trip id="117" depart="562.34" from="-498660820" to="-272706505#0"/>
    <trip id="118" depart="567.14" from="741976087#1" to="-51835564#1"/>
    <trip id="119" depart="571.95" from="32666531#3" to="37930620#3"/>
    <trip id="120" depart="576.76" from="22958996#13" to="319841482#2"/>
    <trip id="121" depart="581.56" from="272706522#0" to="788083576#0"/>
    <trip id="122" depart="586.37" from="-41733279#1" to="502194482#0"/>
    <trip id="123" depart="591.17" from="-498678909#4" to="161469199"/>
    <trip id="124" depart="595.98" from="49031494#2" to="10972617"/>
    <trip id="125" depart="600.79" from="1100998168" to="510624275#0"/>
    <trip id="126" depart="605.59" from="-23205070#6" to="24430829#1"/>
    <trip id="127" depart="610.40" from="941748615#8" to="935908290#8"/>
    <trip id="128" depart="615.21" from="-23205070#7" to="-45852055#3"/>
    <trip id="129" depart="620.01" from="-76656957#3" to="788083575"/>
    <trip id="130" depart="624.82" from="618995388#0" to="618995388#0"/>
    <trip id="131" depart="629.63" from="143396996#7" to="-33393181#0"/>
    <trip id="132" depart="634.43" from="617916835#1" to="498918206#0"/>
    <trip id="133" depart="639.24" from="34573163#0" to="879830502#0"/>
    <trip id="134" depart="644.04" from="41734779#4" to="-10972673#3"/>
    <trip id="135" depart="648.85" from="56323454#1" to="109085416#1"/>
    <trip id="136" depart="653.66" from="45852055#1" to="788083582#1"/>
    <trip id="137" depart="658.46" from="-30684317#2" to="-26815232#0"/>
    <trip id="138" depart="663.27" from="-24721936#1" to="30643375#6"/>
    <trip id="139" depart="668.08" from="-78046223#2" to="34248695#1"/>
    <trip id="140" depart="672.88" from="502192998#3" to="-41734776#4"/>
    <trip id="141" depart="677.69" from="37930630#4" to="-78046223#2"/>
    <trip id="142" depart="682.49" from="24782363#1" to="741996211#0"/>
    <trip id="143" depart="687.30" from="617916841#3" to="-23881398"/>
    <trip id="144" depart="692.11" from="22959003#0" to="-8101187#1"/>
    <trip id="145" depart="696.91" from="-109085415#0" to="515306040#1"/>
    <trip id="146" depart="701.72" from="38215072#13" to="-78046223#0"/>
    <trip id="147" depart="706.53" from="510581874#0" to="30643375#2"/>
    <trip id="148" depart="711.33" from="23205067#14" to="-1101451303#2"/>
    <trip id="149" depart="716.14" from="-23205071#11" to="682500794"/>
    <trip id="150" depart="720.94" from="741996208#1" to="272706535#1"/>
    <trip id="151" depart="725.75" from="617916835#2" to="319841482#2"/>
    <trip id="152" depart="730.56" from="-32665944#1" to="-30643375#5"/>
    <trip id="153" depart="735.36" from="10972673#1" to="741996205"/>
    <trip id="154" depart="740.17" from="517466667#1" to="617916864#4"/>
    <trip id="155" depart="744.98" from="741996204#1" to="-44505463"/>
    <trip id="156" depart="749.78" from="-51834238#4" to="-24721928#1"/>
    <trip id="157" depart="754.59" from="515306042#1" to="682518206"/>
    <trip id="158" depart="759.40" from="16806811#3" to="37930626#13"/>
    <trip id="159" depart="764.20" from="-32961888#3" to="788083573"/>
    <trip id="160" depart="769.01" from="617916864#6" to="8101187#14"/>
    <trip id="161" depart="773.81" from="51841131#0" to="618995389"/>
    <trip id="162" depart="778.62" from="-129777438#0" to="510581874#2"/>
    <trip id="163" depart="783.43" from="1100998182#1" to="788083574#0"/>
    <trip id="164" depart="788.23" from="517466671#3" to="618988000"/>
    <trip id="165" depart="793.04" from="51841131#0" to="-78334879#0"/>
    <trip id="166" depart="797.85" from="517466661#0" to="-24721948#2"/>
    <trip id="167" depart="802.65" from="618988006" to="617916864#2"/>
    <trip id="168" depart="807.46" from="-49031494#13" to="56323458#1"/>
    <trip id="169" depart="812.26" from="23881391#0" to="1100998163"/>
    <trip id="170" depart="817.07" from="517466667#0" to="-498660815#1"/>
    <trip id="171" depart="821.88" from="-1219845291" to="-39219528#8"/>
    <trip id="172" depart="826.68" from="1100998179" to="618988000"/>
    <trip id="173" depart="831.49" from="809137259#5" to="-8101187#16"/>
    <trip id="174" depart="836.30" from="39219528#8" to="16806811#3"/>
    <trip id="175" depart="841.10" from="8573360" to="272706531#3"/>
    <trip id="176" depart="845.91" from="788083582#1" to="-26815232#0"/>
    <trip id="177" depart="850.71" from="809137261#14" to="-37930626#8"/>
    <trip id="178" depart="855.52" from="8080006#0" to="-78145815#1"/>
    <trip id="179" depart="860.33" from="-24721948#4" to="23205071#7"/>
    <trip id="180" depart="865.13" from="502207850#2" to="1100998174"/>
    <trip id="181" depart="869.94" from="33393181#8" to="272706519#2"/>
    <trip id="182" depart="874.75" from="148112148#10" to="319841461#2"/>
    <trip id="183" depart="879.55" from="-51998293#0" to="502192996#0"/>
    <trip id="184" depart="884.36" from="-107683570#1" to="788083569#0"/>
    <trip id="185" depart="889.17" from="272706530#4" to="502197168#2"/>
    <trip id="186" depart="893.97" from="510581874#2" to="49031494#9"/>
    <trip id="187" depart="898.78" from="129845407#5" to="-23205068#1"/>
    <trip id="188" depart="903.58" from="45852055#3" to="1108149903"/>
    <trip id="189" depart="908.39" from="1100998164" to="617916842#1"/>
    <trip id="190" depart="913.20" from="502194482#0" to="10972673#1"/>
    <trip id="191" depart="918.00" from="10972673#3" to="20037909#2"/>
    <trip id="192" depart="922.81" from="161469199" to="108957436#0"/>
    <trip id="193" depart="927.62" from="-30643375#5" to="23205067#15"/>
    <trip id="194" depart="932.42" from="788083582#2" to="498660807#0"/>
    <trip id="195" depart="937.23" from="741996208#0" to="36889983#2"/>
    <trip id="196" depart="942.03" from="1043401681#0" to="272706535#3"/>
    <trip id="197" depart="946.84" from="-1043401681#2" to="-879830502#1"/>
    <trip id="198" depart="951.65" from="23205067#6" to="319841482#0"/>
    <trip id="199" depart="956.45" from="41734793" to="24720993#1"/>
    <trip id="200" depart="961.26" from="23205071#7" to="-45852055#4"/>
    <trip id="201" depart="966.07" from="24721928#1" to="741996207#1"/>
    <trip id="202" depart="970.87" from="517466667#1" to="-34876449#1"/>
    <trip id="203" depart="975.68" from="-23346455#0" to="272706521#3"/>
    <trip id="204" depart="980.48" from="37930630#0" to="1108153634#0"/>
    <trip id="205" depart="985.29" from="56323456" to="510624274#3"/>
    <trip id="206" depart="990.10" from="49031494#5" to="-498660812"/>
    <trip id="207" depart="994.90" from="-39358575#0" to="-129777438#0"/>
    <trip id="208" depart="999.71" from="-502192996#3" to="24721994#2"/>
    <trip id="209" depart="1004.52" from="617916842#0" to="-23205070#5"/>
    <trip id="210" depart="1009.32" from="20037850#9" to="37930630#3"/>
    <trip id="211" depart="1014.13" from="-39219528#2" to="498678909#7"/>
    <trip id="212" depart="1018.94" from="26815225#1" to="-51834238#0"/>
    <trip id="213" depart="1023.74" from="41870567#3" to="-109085415#3"/>
    <trip id="214" depart="1028.55" from="510624266" to="515306040#0"/>
    <trip id="215" depart="1033.35" from="-24721936#0" to="23205070#1"/>
    <trip id="216" depart="1038.16" from="-36889983#4" to="788083618#1"/>
    <trip id="217" depart="1042.97" from="272706519#2" to="-20037814#6"/>
    <trip id="218" depart="1047.77" from="-51834238#2" to="617916842#2"/>
    <trip id="219" depart="1052.58" from="23628734#2" to="51834237#1"/>
    <trip id="220" depart="1057.39" from="46995387#0" to="879830502#2"/>
    <trip id="221" depart="1062.19" from="32669242#0" to="788083608#0"/>
    <trip id="222" depart="1067.00" from="741976088" to="34876449#1"/>
    <trip id="223" depart="1071.80" from="502192999#3" to="272706511"/>
    <trip id="224" depart="1076.61" from="617916834#0" to="272706535#3"/>
    <trip id="225" depart="1081.42" from="741996203#1" to="510624261#0"/>
    <trip id="226" depart="1086.22" from="24721928#5" to="-77112774#3"/>
    <trip id="227" depart="1091.03" from="-51834237#0" to="39219528#8"/>
    <trip id="228" depart="1095.84" from="510624278" to="272706524#2"/>
    <trip id="229" depart="1100.64" from="37930626#8" to="-8060770#4"/>
    <trip id="230" depart="1105.45" from="-23205071#18" to="-878877826#1"/>
    <trip id="231" depart="1110.25" from="-78046223#2" to="1100998178#2"/>
    <trip id="232" depart="1115.06" from="272706531#1" to="-30986401"/>
    <trip id="233" depart="1119.87" from="-498660815#1" to="498678909#1"/>
    <trip id="234" depart="1124.67" from="498902079#0" to="-23205067#10"/>
    <trip id="235" depart="1129.48" from="20037814#0" to="272706534#1"/>
    <trip id="236" depart="1134.29" from="20037909#2" to="-41870567#5"/>
    <trip id="237" depart="1139.09" from="22958996#18" to="741996209"/>
    <trip id="238" depart="1143.90" from="319841482#0" to="498678909#5"/>
    <trip id="239" depart="1148.71" from="617916857#1" to="510624309"/>
    <trip id="240" depart="1153.51" from="146070361#1" to="-109085415#4"/>
    <trip id="241" depart="1158.32" from="1115682829" to="510624276#1"/>
    <trip id="242" depart="1163.12" from="617916853" to="788083609#1"/>
    <trip id="243" depart="1167.93" from="22958996#12" to="510624267#2"/>
    <trip id="244" depart="1172.74" from="272706533#1" to="34248690#1"/>
    <trip id="245" depart="1177.54" from="-46995514#2" to="-49031494#18"/>
    <trip id="246" depart="1182.35" from="23205070#8" to="-132453723"/>
    <trip id="247" depart="1187.16" from="1101451303#0" to="498660808#0"/>
    <trip id="248" depart="1191.96" from="161469212#1" to="-34573163#0"/>
    <trip id="249" depart="1196.77" from="24502367#6" to="-30643375#5"/>
    <trip id="250" depart="1201.57" from="37930620#0" to="-129777446#4"/>
    <trip id="251" depart="1206.38" from="153531786#0" to="30986401"/>
    <trip id="252" depart="1211.19" from="-129777446#2" to="39358584#3"/>
    <trip id="253" depart="1215.99" from="-30684317#6" to="24502371#10"/>
    <trip id="254" depart="1220.80" from="-20037814#6" to="148112148#12"/>
    <trip id="255" depart="1225.61" from="-438325767#2" to="1100998185"/>
    <trip id="256" depart="1230.41" from="510624277#0" to="148112148#12"/>
    <trip id="257" depart="1235.22" from="510624267#1" to="617916835#2"/>
    <trip id="258" depart="1240.03" from="-51841131#2" to="-23346162#1"/>
    <trip id="259" depart="1244.83" from="-1108163309#4" to="272706533#1"/>
    <trip id="260" depart="1249.64" from="998086692" to="129777436#0"/>
    <trip id="261" depart="1254.44" from="41733279#2" to="517466661#0"/>
    <trip id="262" depart="1259.25" from="41734776#4" to="510624276#2"/>
    <trip id="263" depart="1264.06" from="788083607" to="-412534669"/>
    <trip id="264" depart="1268.86" from="-1111122234#1" to="-32961890#1"/>
    <trip id="265" depart="1273.67" from="-30643375#2" to="49031494#3"/>
    <trip id="266" depart="1278.48" from="30684317#15" to="-49031494#11"/>
    <trip id="267" depart="1283.28" from="498678909#7" to="510624310#0"/>
    <trip id="268" depart="1288.09" from="-34876448#1" to="34573161#1"/>
    <trip id="269" depart="1292.89" from="510624259" to="-26815225#1"/>
    <trip id="270" depart="1297.70" from="56323458#0" to="8080006#2"/>
    <trip id="271" depart="1302.51" from="-24721948#4" to="-129777440#1"/>
    <trip id="272" depart="1307.31" from="1100998161#1" to="498660807#0"/>
    <trip id="273" depart="1312.12" from="788083618#1" to="161469204"/>
    <trip id="274" depart="1316.93" from="502192997#1" to="-23205071#12"/>
    <trip id="275" depart="1321.73" from="498660817#0" to="37930629#2"/>
    <trip id="276" depart="1326.54" from="-24720993#1" to="515306041#0"/>
    <trip id="277" depart="1331.34" from="617916842#1" to="33393181#10"/>
    <trip id="278" depart="1336.15" from="-272706505#5" to="878161783"/>
    <trip id="279" depart="1340.96" from="515306044" to="127101782#0"/>
    <trip id="280" depart="1345.76" from="23205067#2" to="146070343#4"/>
    <trip id="281" depart="1350.57" from="272706505#5" to="1111124241"/>
    <trip id="282" depart="1355.38" from="617916842#0" to="617118430"/>
    <trip id="283" depart="1360.18" from="-24721931#2" to="8060770#2"/>
    <trip id="284" depart="1364.99" from="38215072#1" to="617916834#1"/>
    <trip id="285" depart="1369.80" from="498918206#2" to="23254331#0"/>
    <trip id="286" depart="1374.60" from="510545181" to="809137259#2"/>
    <trip id="287" depart="1379.41" from="-78046223#0" to="51998288#4"/>
    <trip id="288" depart="1384.21" from="272706530#4" to="25753947#1"/>
    <trip id="289" depart="1389.02" from="23205070#7" to="510545184"/>
    <trip id="290" depart="1393.83" from="-77112774#5" to="617916854#0"/>
    <trip id="291" depart="1398.63" from="617916834#0" to="-23346455#3"/>
    <trip id="292" depart="1403.44" from="618995388#1" to="-51834238#0"/>
    <trip id="293" depart="1408.25" from="24430829#0" to="34876448#2"/>
    <trip id="294" depart="1413.05" from="146070343#8" to="-129777446#9"/>
    <trip id="295" depart="1417.86" from="617916842#1" to="-37930627#6"/>
    <trip id="296" depart="1422.66" from="-439027588" to="517466672#0"/>
    <trip id="297" depart="1427.47" from="1108152805#0" to="618995388#1"/>
    <trip id="298" depart="1432.28" from="498891940#0" to="-8101187#0"/>
    <trip id="299" depart="1437.08" from="-1108150006#0" to="788083596#2"/>
    <trip id="300" depart="1441.89" from="-23346455#2" to="502197168#2"/>
    <trip id="301" depart="1446.70" from="24782363#1" to="510624277#2"/>
    <trip id="302" depart="1451.50" from="498660817#0" to="41733279#1"/>
    <trip id="303" depart="1456.31" from="25753947#2" to="517466669#1"/>
    <trip id="304" depart="1461.11" from="-23881443#3" to="-498660807#0"/>
    <trip id="305" depart="1465.92" from="498660818#0" to="1100998164"/>
    <trip id="306" depart="1470.73" from="319841461#2" to="24721950"/>
    <trip id="307" depart="1475.53" from="272706526#1" to="23205070#10"/>
    <trip id="308" depart="1480.34" from="510624247" to="1108150006#1"/>
    <trip id="309" depart="1485.15" from="498891940#2" to="-788083609#1"/>
    <trip id="310" depart="1489.95" from="-51835565#0" to="-272706505#2"/>
    <trip id="311" depart="1494.76" from="-38215072#5" to="-272706498#3"/>
    <trip id="312" depart="1499.57" from="272706530#2" to="510624280#1"/>
    <trip id="313" depart="1504.37" from="-37930629#1" to="-46995514#0"/>
    <trip id="314" depart="1509.18" from="24771986#2" to="502197171#1"/>
    <trip id="315" depart="1513.98" from="8101187#12" to="272706526#1"/>
    <trip id="316" depart="1518.79" from="-8101084#2" to="-24502371#3"/>
    <trip id="317" depart="1523.60" from="-39219528#10" to="-498660815#1"/>
    <trip id="318" depart="1528.40" from="-37930626#5" to="-1108153019#1"/>
    <trip id="319" depart="1533.21" from="272706530#1" to="-8060770#4"/>
    <trip id="320" depart="1538.02" from="8101084#1" to="30643375#7"/>
    <trip id="321" depart="1542.82" from="498678909#2" to="-30643375#2"/>
    <trip id="322" depart="1547.63" from="618988002#1" to="26815262#1"/>
    <trip id="323" depart="1552.43" from="618988006" to="319841461#1"/>
    <trip id="324" depart="1557.24" from="24502371#11" to="23346162#4"/>
    <trip id="325" depart="1562.05" from="-37930628" to="-20037850#1"/>
    <trip id="326" depart="1566.85" from="788083583#1" to="24771986#2"/>
    <trip id="327" depart="1571.66" from="56323458#2" to="184584924"/>
    <trip id="328" depart="1576.47" from="-23205070#9" to="37930630#1"/>
    <trip id="329" depart="1581.27" from="-20037850#6" to="-32666531#3"/>
    <trip id="330" depart="1586.08" from="30684317#12" to="1100998161#1"/>
    <trip id="331" depart="1590.88" from="935908290#1" to="-272706498#0"/>
    <trip id="332" depart="1595.69" from="510624277#4" to="34573159"/>
    <trip id="333" depart="1600.50" from="517466664" to="-498660814#0"/>
    <trip id="334" depart="1605.30" from="272706522#0" to="23628734#5"/>
    <trip id="335" depart="1610.11" from="23205071#9" to="617916864#4"/>
    <trip id="336" depart="1614.92" from="884315386#1" to="1100998163"/>
    <trip id="337" depart="1619.72" from="36911651#0" to="34876448#12"/>
    <trip id="338" depart="1624.53" from="510545200#1" to="788083596#2"/>
    <trip id="339" depart="1629.34" from="-41734793" to="-45852053#0"/>
    <trip id="340" depart="1634.14" from="44505464" to="-32962614#9"/>
    <trip id="341" depart="1638.95" from="-352043479#0" to="-23205071#10"/>
    <trip id="342" depart="1643.75" from="-108957436#0" to="23628734#5"/>
    <trip id="343" depart="1648.56" from="32666531#0" to="-886214049#4"/>
    <trip id="344" depart="1653.37" from="-498660815#1" to="498918211#6"/>
    <trip id="345" depart="1658.17" from="498891940#2" to="23881443#1"/>
    <trip id="346" depart="1662.98" from="498660814#0" to="78543270#1"/>
    <trip id="347" depart="1667.79" from="517466661#1" to="37930627#4"/>
    <trip id="348" depart="1672.59" from="45837874#0" to="788083575"/>
    <trip id="349" depart="1677.40" from="229638920" to="272706535#1"/>
    <trip id="350" depart="1682.20" from="412534669" to="741996213#1"/>
    <trip id="351" depart="1687.01" from="617118433#2" to="-23205070#2"/>
    <trip id="352" depart="1691.82" from="-34573159" to="1100998167"/>
    <trip id="353" depart="1696.62" from="510624260" to="31774911#4"/>
    <trip id="354" depart="1701.43" from="-8101187#5" to="-272706537#3"/>
    <trip id="355" depart="1706.24" from="498660816#0" to="498891940#1"/>
    <trip id="356" depart="1711.04" from="788083595" to="272706505#9"/>
    <trip id="357" depart="1715.85" from="26815176#4" to="-23205071#7"/>
    <trip id="358" depart="1720.65" from="-148112148#13" to="23205071#17"/>
    <trip id="359" depart="1725.46" from="1100998175#0" to="-51998294#0"/>
    <trip id="360" depart="1730.27" from="-23881391#0" to="8080006#0"/>
    <trip id="361" depart="1735.07" from="617916836#0" to="319841461#1"/>
    <trip id="362" depart="1739.88" from="788083608#0" to="961345831"/>
    <trip id="363" depart="1744.69" from="49031494#3" to="-78543270#3"/>
    <trip id="364" depart="1749.49" from="-148112148#14" to="510624277#0"/>
    <trip id="365" depart="1754.30" from="24502371#3" to="41734791"/>
    <trip id="366" depart="1759.11" from="77112774#0" to="-37930627#5"/>
    <trip id="367" depart="1763.91" from="319841482#0" to="38215072#8"/>
    <trip id="368" depart="1768.72" from="25753947#4" to="-23628734#7"/>
    <trip id="369" depart="1773.52" from="1111122234#1" to="1108153019#0"/>
    <trip id="370" depart="1778.33" from="49031494#11" to="617916864#1"/>
    <trip id="371" depart="1783.14" from="1100998181#0" to="498678909#0"/>
    <trip id="372" depart="1787.94" from="-8101187#4" to="788083596#0"/>
    <trip id="373" depart="1792.75" from="51998293#1" to="272706537#4"/>
    <trip id="374" depart="1797.56" from="23628663#0" to="1100998175#0"/>
    <trip id="375" depart="1802.36" from="1100998175#2" to="809137261#3"/>
    <trip id="376" depart="1807.17" from="161469212#1" to="272706521#2"/>
    <trip id="377" depart="1811.97" from="879830502#1" to="44505464"/>
    <trip id="378" depart="1816.78" from="272706531#3" to="22958996#19"/>
    <trip id="379" depart="1821.59" from="-37930630#1" to="143396996#6"/>
    <trip id="380" depart="1826.39" from="510624274#3" to="37930627#5"/>
    <trip id="381" depart="1831.20" from="510624276#2" to="-41734776#4"/>
    <trip id="382" depart="1836.01" from="272706534#1" to="788083569#2"/>
    <trip id="383" depart="1840.81" from="23205071#13" to="498891940#1"/>
    <trip id="384" depart="1845.62" from="-272706505#5" to="8101084#1"/>
    <trip id="385" depart="1850.42" from="34248695#0" to="-498918211#7"/>
    <trip id="386" depart="1855.23" from="-32962614#5" to="272706537#6"/>
    <trip id="387" depart="1860.04" from="272706535#2" to="-23881443#3"/>
    <trip id="388" depart="1864.84" from="886214049#4" to="76656957#4"/>
    <trip id="389" depart="1869.65" from="23881443#1" to="-26815262#0"/>
    <trip id="390" depart="1874.46" from="617916835#0" to="272706505#2"/>
    <trip id="391" depart="1879.26" from="502192998#1" to="272706517"/>
    <trip id="392" depart="1884.07" from="-78145815#0" to="617916836#2"/>
    <trip id="393" depart="1888.88" from="8101187#8" to="-51834237#1"/>
    <trip id="394" depart="1893.68" from="272706535#1" to="148112148#6"/>
    <trip id="395" depart="1898.49" from="78145818#0" to="272706515"/>
    <trip id="396" depart="1903.29" from="618993317#0" to="618988000"/>
    <trip id="397" depart="1908.10" from="-78334880#1" to="517466667#0"/>
    <trip id="398" depart="1912.91" from="20037909#0" to="788083576#0"/>
    <trip id="399" depart="1917.71" from="272706508" to="617118424#2"/>
    <trip id="400" depart="1922.52" from="-8101084#1" to="109085415#7"/>
    <trip id="401" depart="1927.33" from="319841482#1" to="941748615#9"/>
    <trip id="402" depart="1932.13" from="24782363#4" to="-32666531#1"/>
    <trip id="403" depart="1936.94" from="272706531#0" to="1117349266#0"/>
    <trip id="404" depart="1941.74" from="272706535#1" to="272706535#0"/>